<routes>
    <vType id="typeA" type="passenger" length="4" accel="2.6" decel="4.5" sigma="0.0" maxSpeed="20" color="yellow"/>
    <vType id="typeB" type="passenger" length="4" accel="2.6" decel="4.5" sigma="0.0" maxSpeed="20" color="blue"/>
    <vType id="typeC" type="passenger" length="4" accel="2.6" decel="4.5" sigma="0.0" maxSpeed="20" color="magenta"/>
    <route edges="A X" color="yellow" id="route_0"/>
    <route edges="B X" color="yellow" id="route_1"/>
    <route edges="B Y" color="yellow" id="route_2"/>
    <route edges="C Y" color="yellow" id="route_3"/>
    <vehicle id="A_1" type="typeA" route="route_0" depart="1" departLane="0" departSpeed="random"/>
    <vehicle id="C_1" type="typeC" route="route_3" depart="1" departLane="0" departSpeed="random"/>
    <vehicle id="A_2" type="typeA" route="route_0" depart="2" departLane="0" departSpeed="random"/>
    <vehicle id="C_2" type="typeC" route="route_3" depart="2" departLane="0" departSpeed="random"/>
    <vehicle id="A_3" type="typeA" route="route_0" depart="3" departLane="0" departSpeed="random"/>
    <vehicle id="B_1" type="typeB" route="route_1" depart="3" departLane="0" departSpeed="random"/>
    <vehicle id="B_2" type="typeB" route="route_1" depart="4" departLane="0" departSpeed="random"/>
    <vehicle id="C_3" type="typeC" route="route_3" depart="4" departLane="0" departSpeed="random"/>
    <vehicle id="B_3" type="typeB" route="route_1" depart="5" departLane="0" departSpeed="random"/>
    <vehicle id="A_4" type="typeA" route="route_0" depart="6" departLane="0" departSpeed="random"/>
    <vehicle id="C_4" type="typeC" route="route_3" depart="6" departLane="0" departSpeed="random"/>
    <vehicle id="A_5" type="typeA" route="route_0" depart="7" departLane="0" departSpeed="random"/>
    <vehicle id="A_6" type="typeA" route="route_0" depart="9" departLane="0" departSpeed="random"/>
    <vehicle id="B_4" type="typeB" route="route_1" depart="11" departLane="0" departSpeed="random"/>
    <vehicle id="A_7" type="typeA" route="route_0" depart="12" departLane="0" departSpeed="random"/>
    <vehicle id="C_5" type="typeC" route="route_3" depart="12" departLane="0" departSpeed="random"/>
    <vehicle id="A_8" type="typeA" route="route_0" depart="13" departLane="0" departSpeed="random"/>
    <vehicle id="C_6" type="typeC" route="route_3" depart="13" departLane="0" departSpeed="random"/>
    <vehicle id="A_9" type="typeA" route="route_0" depart="15" departLane="0" departSpeed="random"/>
    <vehicle id="B_5" type="typeB" route="route_1" depart="15" departLane="0" departSpeed="random"/>
    <vehicle id="A_10" type="typeA" route="route_0" depart="16" departLane="0" departSpeed="random"/>
    <vehicle id="B_6" type="typeB" route="route_1" depart="16" departLane="0" departSpeed="random"/>
    <vehicle id="C_7" type="typeC" route="route_3" depart="16" departLane="0" departSpeed="random"/>
    <vehicle id="B_7" type="typeB" route="route_1" depart="17" departLane="0" departSpeed="random"/>
    <vehicle id="C_8" type="typeC" route="route_3" depart="18" departLane="0" departSpeed="random"/>
    <vehicle id="A_11" type="typeA" route="route_0" depart="19" departLane="0" departSpeed="random"/>
    <vehicle id="B_8" type="typeB" route="route_1" depart="19" departLane="0" departSpeed="random"/>
    <vehicle id="B_9" type="typeB" route="route_1" depart="20" departLane="0" departSpeed="random"/>
    <vehicle id="C_9" type="typeC" route="route_3" depart="20" departLane="0" departSpeed="random"/>
    <vehicle id="A_12" type="typeA" route="route_0" depart="21" departLane="0" departSpeed="random"/>
    <vehicle id="B_10" type="typeB" route="route_1" depart="21" departLane="0" departSpeed="random"/>
    <vehicle id="A_13" type="typeA" route="route_0" depart="22" departLane="0" departSpeed="random"/>
    <vehicle id="C_10" type="typeC" route="route_3" depart="22" departLane="0" departSpeed="random"/>
    <vehicle id="B_11" type="typeB" route="route_1" depart="23" departLane="0" departSpeed="random"/>
    <vehicle id="C_11" type="typeC" route="route_3" depart="23" departLane="0" departSpeed="random"/>
    <vehicle id="A_14" type="typeA" route="route_0" depart="24" departLane="0" departSpeed="random"/>
    <vehicle id="A_15" type="typeA" route="route_0" depart="25" departLane="0" departSpeed="random"/>
    <vehicle id="C_12" type="typeC" route="route_3" depart="25" departLane="0" departSpeed="random"/>
    <vehicle id="B_12" type="typeB" route="route_1" depart="26" departLane="0" departSpeed="random"/>
    <vehicle id="A_16" type="typeA" route="route_0" depart="27" departLane="0" departSpeed="random"/>
    <vehicle id="C_13" type="typeC" route="route_3" depart="27" departLane="0" departSpeed="random"/>
    <vehicle id="B_13" type="typeB" route="route_1" depart="28" departLane="0" departSpeed="random"/>
    <vehicle id="C_14" type="typeC" route="route_3" depart="28" departLane="0" departSpeed="random"/>
    <vehicle id="A_17" type="typeA" route="route_0" depart="30" departLane="0" departSpeed="random"/>
    <vehicle id="B_14" type="typeB" route="route_1" depart="30" departLane="0" departSpeed="random"/>
    <vehicle id="A_18" type="typeA" route="route_0" depart="31" departLane="0" departSpeed="random"/>
    <vehicle id="C_15" type="typeC" route="route_3" depart="31" departLane="0" departSpeed="random"/>
    <vehicle id="B_15" type="typeB" route="route_1" depart="32" departLane="0" departSpeed="random"/>
    <vehicle id="B_16" type="typeB" route="route_1" depart="34" departLane="0" departSpeed="random"/>
    <vehicle id="C_16" type="typeC" route="route_3" depart="34" departLane="0" departSpeed="random"/>
    <vehicle id="A_19" type="typeA" route="route_0" depart="35" departLane="0" departSpeed="random"/>
    <vehicle id="B_17" type="typeB" route="route_1" depart="35" departLane="0" departSpeed="random"/>
    <vehicle id="A_20" type="typeA" route="route_0" depart="36" departLane="0" departSpeed="random"/>
    <vehicle id="B_18" type="typeB" route="route_1" depart="36" departLane="0" departSpeed="random"/>
    <vehicle id="C_17" type="typeC" route="route_3" depart="36" departLane="0" departSpeed="random"/>
    <vehicle id="A_21" type="typeA" route="route_0" depart="38" departLane="0" departSpeed="random"/>
    <vehicle id="C_18" type="typeC" route="route_3" depart="38" departLane="0" departSpeed="random"/>
    <vehicle id="A_22" type="typeA" route="route_0" depart="39" departLane="0" departSpeed="random"/>
    <vehicle id="C_19" type="typeC" route="route_3" depart="39" departLane="0" departSpeed="random"/>
    <vehicle id="A_23" type="typeA" route="route_0" depart="40" departLane="0" departSpeed="random"/>
    <vehicle id="B_19" type="typeB" route="route_1" depart="40" departLane="0" departSpeed="random"/>
    <vehicle id="C_20" type="typeC" route="route_3" depart="40" departLane="0" departSpeed="random"/>
    <vehicle id="A_24" type="typeA" route="route_0" depart="41" departLane="0" departSpeed="random"/>
    <vehicle id="C_21" type="typeC" route="route_3" depart="41" departLane="0" departSpeed="random"/>
    <vehicle id="B_20" type="typeB" route="route_1" depart="42" departLane="0" departSpeed="random"/>
    <vehicle id="C_22" type="typeC" route="route_3" depart="42" departLane="0" departSpeed="random"/>
    <vehicle id="A_25" type="typeA" route="route_0" depart="43" departLane="0" departSpeed="random"/>
    <vehicle id="B_21" type="typeB" route="route_1" depart="43" departLane="0" departSpeed="random"/>
    <vehicle id="C_23" type="typeC" route="route_3" depart="43" departLane="0" departSpeed="random"/>
    <vehicle id="A_26" type="typeA" route="route_0" depart="44" departLane="0" departSpeed="random"/>
    <vehicle id="B_22" type="typeB" route="route_1" depart="44" departLane="0" departSpeed="random"/>
    <vehicle id="C_24" type="typeC" route="route_3" depart="45" departLane="0" departSpeed="random"/>
    <vehicle id="A_27" type="typeA" route="route_0" depart="46" departLane="0" departSpeed="random"/>
    <vehicle id="B_23" type="typeB" route="route_1" depart="46" departLane="0" departSpeed="random"/>
    <vehicle id="C_25" type="typeC" route="route_3" depart="46" departLane="0" departSpeed="random"/>
    <vehicle id="A_28" type="typeA" route="route_0" depart="47" departLane="0" departSpeed="random"/>
    <vehicle id="B_24" type="typeB" route="route_1" depart="47" departLane="0" departSpeed="random"/>
    <vehicle id="C_26" type="typeC" route="route_3" depart="47" departLane="0" departSpeed="random"/>
    <vehicle id="B_25" type="typeB" route="route_1" depart="48" departLane="0" departSpeed="random"/>
    <vehicle id="A_29" type="typeA" route="route_0" depart="49" departLane="0" departSpeed="random"/>
    <vehicle id="B_26" type="typeB" route="route_1" depart="49" departLane="0" departSpeed="random"/>
    <vehicle id="C_27" type="typeC" route="route_3" depart="49" departLane="0" departSpeed="random"/>
    <vehicle id="A_30" type="typeA" route="route_0" depart="50" departLane="0" departSpeed="random"/>
    <vehicle id="C_28" type="typeC" route="route_3" depart="50" departLane="0" departSpeed="random"/>
    <vehicle id="A_31" type="typeA" route="route_0" depart="51" departLane="0" departSpeed="random"/>
    <vehicle id="B_27" type="typeB" route="route_1" depart="51" departLane="0" departSpeed="random"/>
    <vehicle id="C_29" type="typeC" route="route_3" depart="51" departLane="0" departSpeed="random"/>
    <vehicle id="A_32" type="typeA" route="route_0" depart="52" departLane="0" departSpeed="random"/>
    <vehicle id="C_30" type="typeC" route="route_3" depart="52" departLane="0" departSpeed="random"/>
    <vehicle id="B_28" type="typeB" route="route_1" depart="53" departLane="0" departSpeed="random"/>
    <vehicle id="C_31" type="typeC" route="route_3" depart="53" departLane="0" departSpeed="random"/>
    <vehicle id="A_33" type="typeA" route="route_0" depart="54" departLane="0" departSpeed="random"/>
    <vehicle id="B_29" type="typeB" route="route_1" depart="54" departLane="0" departSpeed="random"/>
    <vehicle id="A_34" type="typeA" route="route_0" depart="55" departLane="0" departSpeed="random"/>
    <vehicle id="C_32" type="typeC" route="route_3" depart="55" departLane="0" departSpeed="random"/>
    <vehicle id="A_35" type="typeA" route="route_0" depart="57" departLane="0" departSpeed="random"/>
    <vehicle id="B_30" type="typeB" route="route_1" depart="57" departLane="0" departSpeed="random"/>
    <vehicle id="C_33" type="typeC" route="route_3" depart="57" departLane="0" departSpeed="random"/>
    <vehicle id="C_34" type="typeC" route="route_3" depart="59" departLane="0" departSpeed="random"/>
    <vehicle id="A_36" type="typeA" route="route_0" depart="60" departLane="0" departSpeed="random"/>
    <vehicle id="B_31" type="typeB" route="route_1" depart="60" departLane="0" departSpeed="random"/>
    <vehicle id="C_35" type="typeC" route="route_3" depart="60" departLane="0" departSpeed="random"/>
    <vehicle id="A_37" type="typeA" route="route_0" depart="61" departLane="0" departSpeed="random"/>
    <vehicle id="B_32" type="typeB" route="route_1" depart="62" departLane="0" departSpeed="random"/>
    <vehicle id="B_33" type="typeB" route="route_1" depart="63" departLane="0" departSpeed="random"/>
    <vehicle id="C_36" type="typeC" route="route_3" depart="63" departLane="0" departSpeed="random"/>
    <vehicle id="A_38" type="typeA" route="route_0" depart="64" departLane="0" departSpeed="random"/>
    <vehicle id="B_34" type="typeB" route="route_1" depart="64" departLane="0" departSpeed="random"/>
    <vehicle id="B_35" type="typeB" route="route_1" depart="65" departLane="0" departSpeed="random"/>
    <vehicle id="B_36" type="typeB" route="route_1" depart="67" departLane="0" departSpeed="random"/>
    <vehicle id="C_37" type="typeC" route="route_3" depart="67" departLane="0" departSpeed="random"/>
    <vehicle id="A_39" type="typeA" route="route_0" depart="68" departLane="0" departSpeed="random"/>
    <vehicle id="C_38" type="typeC" route="route_3" depart="68" departLane="0" departSpeed="random"/>
    <vehicle id="A_40" type="typeA" route="route_0" depart="69" departLane="0" departSpeed="random"/>
    <vehicle id="B_37" type="typeB" route="route_1" depart="69" departLane="0" departSpeed="random"/>
    <vehicle id="C_39" type="typeC" route="route_3" depart="69" departLane="0" departSpeed="random"/>
    <vehicle id="A_41" type="typeA" route="route_0" depart="70" departLane="0" departSpeed="random"/>
    <vehicle id="B_38" type="typeB" route="route_1" depart="70" departLane="0" departSpeed="random"/>
    <vehicle id="C_40" type="typeC" route="route_3" depart="70" departLane="0" departSpeed="random"/>
    <vehicle id="C_41" type="typeC" route="route_3" depart="71" departLane="0" departSpeed="random"/>
    <vehicle id="A_42" type="typeA" route="route_0" depart="72" departLane="0" departSpeed="random"/>
    <vehicle id="C_42" type="typeC" route="route_3" depart="72" departLane="0" departSpeed="random"/>
    <vehicle id="C_43" type="typeC" route="route_3" depart="73" departLane="0" departSpeed="random"/>
    <vehicle id="A_43" type="typeA" route="route_0" depart="74" departLane="0" departSpeed="random"/>
    <vehicle id="B_39" type="typeB" route="route_1" depart="74" departLane="0" departSpeed="random"/>
    <vehicle id="C_44" type="typeC" route="route_3" depart="74" departLane="0" departSpeed="random"/>
    <vehicle id="B_40" type="typeB" route="route_1" depart="75" departLane="0" departSpeed="random"/>
    <vehicle id="C_45" type="typeC" route="route_3" depart="75" departLane="0" departSpeed="random"/>
    <vehicle id="A_44" type="typeA" route="route_0" depart="76" departLane="0" departSpeed="random"/>
    <vehicle id="B_41" type="typeB" route="route_1" depart="76" departLane="0" departSpeed="random"/>
    <vehicle id="A_45" type="typeA" route="route_0" depart="77" departLane="0" departSpeed="random"/>
    <vehicle id="C_46" type="typeC" route="route_3" depart="77" departLane="0" departSpeed="random"/>
    <vehicle id="B_42" type="typeB" route="route_1" depart="78" departLane="0" departSpeed="random"/>
    <vehicle id="C_47" type="typeC" route="route_3" depart="78" departLane="0" departSpeed="random"/>
    <vehicle id="A_46" type="typeA" route="route_0" depart="79" departLane="0" departSpeed="random"/>
    <vehicle id="C_48" type="typeC" route="route_3" depart="79" departLane="0" departSpeed="random"/>
    <vehicle id="A_47" type="typeA" route="route_0" depart="80" departLane="0" departSpeed="random"/>
    <vehicle id="B_43" type="typeB" route="route_1" depart="80" departLane="0" departSpeed="random"/>
    <vehicle id="C_49" type="typeC" route="route_3" depart="80" departLane="0" departSpeed="random"/>
    <vehicle id="A_48" type="typeA" route="route_0" depart="81" departLane="0" departSpeed="random"/>
    <vehicle id="B_44" type="typeB" route="route_1" depart="81" departLane="0" departSpeed="random"/>
    <vehicle id="C_50" type="typeC" route="route_3" depart="81" departLane="0" departSpeed="random"/>
    <vehicle id="A_49" type="typeA" route="route_0" depart="82" departLane="0" departSpeed="random"/>
    <vehicle id="B_45" type="typeB" route="route_1" depart="82" departLane="0" departSpeed="random"/>
    <vehicle id="A_50" type="typeA" route="route_0" depart="83" departLane="0" departSpeed="random"/>
    <vehicle id="B_46" type="typeB" route="route_1" depart="83" departLane="0" departSpeed="random"/>
    <vehicle id="C_51" type="typeC" route="route_3" depart="84" departLane="0" departSpeed="random"/>
    <vehicle id="A_51" type="typeA" route="route_0" depart="85" departLane="0" departSpeed="random"/>
    <vehicle id="B_47" type="typeB" route="route_1" depart="86" departLane="0" departSpeed="random"/>
    <vehicle id="C_52" type="typeC" route="route_3" depart="86" departLane="0" departSpeed="random"/>
    <vehicle id="B_48" type="typeB" route="route_1" depart="87" departLane="0" departSpeed="random"/>
    <vehicle id="C_53" type="typeC" route="route_3" depart="87" departLane="0" departSpeed="random"/>
    <vehicle id="A_52" type="typeA" route="route_0" depart="88" departLane="0" departSpeed="random"/>
    <vehicle id="B_49" type="typeB" route="route_1" depart="88" departLane="0" departSpeed="random"/>
    <vehicle id="B_50" type="typeB" route="route_1" depart="89" departLane="0" departSpeed="random"/>
    <vehicle id="C_54" type="typeC" route="route_3" depart="89" departLane="0" departSpeed="random"/>
    <vehicle id="A_53" type="typeA" route="route_0" depart="90" departLane="0" departSpeed="random"/>
    <vehicle id="C_55" type="typeC" route="route_3" depart="90" departLane="0" departSpeed="random"/>
    <vehicle id="B_51" type="typeB" route="route_1" depart="91" departLane="0" departSpeed="random"/>
    <vehicle id="B_52" type="typeB" route="route_1" depart="92" departLane="0" departSpeed="random"/>
    <vehicle id="C_56" type="typeC" route="route_3" depart="92" departLane="0" departSpeed="random"/>
    <vehicle id="A_54" type="typeA" route="route_0" depart="93" departLane="0" departSpeed="random"/>
    <vehicle id="B_53" type="typeB" route="route_1" depart="93" departLane="0" departSpeed="random"/>
    <vehicle id="A_55" type="typeA" route="route_0" depart="94" departLane="0" departSpeed="random"/>
    <vehicle id="B_54" type="typeB" route="route_1" depart="94" departLane="0" departSpeed="random"/>
    <vehicle id="A_56" type="typeA" route="route_0" depart="96" departLane="0" departSpeed="random"/>
    <vehicle id="B_55" type="typeB" route="route_1" depart="96" departLane="0" departSpeed="random"/>
    <vehicle id="C_57" type="typeC" route="route_3" depart="96" departLane="0" departSpeed="random"/>
    <vehicle id="A_57" type="typeA" route="route_0" depart="97" departLane="0" departSpeed="random"/>
    <vehicle id="B_56" type="typeB" route="route_1" depart="97" departLane="0" departSpeed="random"/>
    <vehicle id="C_58" type="typeC" route="route_3" depart="97" departLane="0" departSpeed="random"/>
    <vehicle id="A_58" type="typeA" route="route_0" depart="98" departLane="0" departSpeed="random"/>
    <vehicle id="C_59" type="typeC" route="route_3" depart="98" departLane="0" departSpeed="random"/>
    <vehicle id="C_60" type="typeC" route="route_3" depart="99" departLane="0" departSpeed="random"/>
    <vehicle id="A_59" type="typeA" route="route_0" depart="100" departLane="0" departSpeed="random"/>
    <vehicle id="A_60" type="typeA" route="route_0" depart="102" departLane="0" departSpeed="random"/>
    <vehicle id="B_57" type="typeB" route="route_1" depart="102" departLane="0" departSpeed="random"/>
    <vehicle id="B_58" type="typeB" route="route_1" depart="104" departLane="0" departSpeed="random"/>
    <vehicle id="B_59" type="typeB" route="route_1" depart="105" departLane="0" departSpeed="random"/>
    <vehicle id="B_60" type="typeB" route="route_1" depart="106" departLane="0" departSpeed="random"/>
</routes>
