<routes>
    <vType id="typeA" type="passenger" length="4.5" accel="3" decel="4.5" sigma="0.0" maxSpeed="20" minGap="3" carFollowModel="CACC" tau="1.0" color="yellow"/>
    <vType id="typeB" type="passenger" length="4.5" accel="3" decel="4.5" sigma="0.0" maxSpeed="20" minGap="3" carFollowModel="CACC" tau="1.0" color="blue"/>
    <vType id="typeC" type="passenger" length="4.5" accel="3" decel="4.5" sigma="0.0" maxSpeed="20" minGap="3" carFollowModel="CACC" tau="1.0" color="magenta"/>
    <route edges="incoming X" color="yellow" id="route_0"/>
    <route edges="incoming X" color="yellow" id="route_1"/>
    <route edges="incoming Y" color="yellow" id="route_2"/>
    <route edges="incoming Y" color="yellow" id="route_3"/>
    <vehicle id="A_1" type="typeA" route="route_0" depart="2" departLane="2" departSpeed="0"/>
    <vehicle id="B_1" type="typeB" route="route_1" depart="2" departLane="1" departSpeed="0"/>
    <vehicle id="A_2" type="typeA" route="route_0" depart="3" departLane="2" departSpeed="0"/>
    <vehicle id="C_1" type="typeC" route="route_3" depart="3" departLane="0" departSpeed="0"/>
    <vehicle id="A_3" type="typeA" route="route_0" depart="4" departLane="2" departSpeed="0"/>
    <vehicle id="A_4" type="typeA" route="route_0" depart="5" departLane="2" departSpeed="0"/>
    <vehicle id="B_2" type="typeB" route="route_1" depart="7" departLane="1" departSpeed="0"/>
    <vehicle id="B_3" type="typeB" route="route_1" depart="8" departLane="1" departSpeed="0"/>
    <vehicle id="C_2" type="typeC" route="route_3" depart="8" departLane="0" departSpeed="0"/>
    <vehicle id="A_5" type="typeA" route="route_0" depart="9" departLane="2" departSpeed="0"/>
    <vehicle id="A_6" type="typeA" route="route_0" depart="10" departLane="2" departSpeed="0"/>
    <vehicle id="B_4" type="typeB" route="route_1" depart="10" departLane="1" departSpeed="0"/>
    <vehicle id="B_5" type="typeB" route="route_1" depart="12" departLane="1" departSpeed="0"/>
    <vehicle id="C_3" type="typeC" route="route_3" depart="13" departLane="0" departSpeed="0"/>
    <vehicle id="B_6" type="typeB" route="route_1" depart="14" departLane="1" departSpeed="0"/>
    <vehicle id="C_4" type="typeC" route="route_3" depart="14" departLane="0" departSpeed="0"/>
    <vehicle id="A_7" type="typeA" route="route_0" depart="15" departLane="2" departSpeed="0"/>
    <vehicle id="C_5" type="typeC" route="route_3" depart="17" departLane="0" departSpeed="0"/>
    <vehicle id="A_8" type="typeA" route="route_0" depart="19" departLane="2" departSpeed="0"/>
    <vehicle id="C_6" type="typeC" route="route_3" depart="19" departLane="0" departSpeed="0"/>
    <vehicle id="C_7" type="typeC" route="route_3" depart="20" departLane="0" departSpeed="0"/>
    <vehicle id="A_9" type="typeA" route="route_0" depart="21" departLane="2" departSpeed="0"/>
    <vehicle id="B_7" type="typeB" route="route_1" depart="22" departLane="1" departSpeed="0"/>
    <vehicle id="A_10" type="typeA" route="route_0" depart="23" departLane="2" departSpeed="0"/>
    <vehicle id="B_8" type="typeB" route="route_1" depart="23" departLane="1" departSpeed="0"/>
    <vehicle id="C_8" type="typeC" route="route_3" depart="23" departLane="0" departSpeed="0"/>
    <vehicle id="A_11" type="typeA" route="route_0" depart="24" departLane="2" departSpeed="0"/>
    <vehicle id="A_12" type="typeA" route="route_0" depart="25" departLane="2" departSpeed="0"/>
    <vehicle id="C_9" type="typeC" route="route_3" depart="25" departLane="0" departSpeed="0"/>
    <vehicle id="B_9" type="typeB" route="route_1" depart="26" departLane="1" departSpeed="0"/>
    <vehicle id="A_13" type="typeA" route="route_0" depart="29" departLane="2" departSpeed="0"/>
    <vehicle id="B_10" type="typeB" route="route_1" depart="30" departLane="1" departSpeed="0"/>
    <vehicle id="C_10" type="typeC" route="route_3" depart="30" departLane="0" departSpeed="0"/>
    <vehicle id="A_14" type="typeA" route="route_0" depart="31" departLane="2" departSpeed="0"/>
    <vehicle id="A_15" type="typeA" route="route_0" depart="32" departLane="2" departSpeed="0"/>
    <vehicle id="B_11" type="typeB" route="route_1" depart="33" departLane="1" departSpeed="0"/>
    <vehicle id="A_16" type="typeA" route="route_0" depart="34" departLane="2" departSpeed="0"/>
    <vehicle id="C_11" type="typeC" route="route_3" depart="35" departLane="0" departSpeed="0"/>
    <vehicle id="B_12" type="typeB" route="route_1" depart="36" departLane="1" departSpeed="0"/>
    <vehicle id="B_13" type="typeB" route="route_1" depart="37" departLane="1" departSpeed="0"/>
    <vehicle id="C_12" type="typeC" route="route_3" depart="37" departLane="0" departSpeed="0"/>
    <vehicle id="B_14" type="typeB" route="route_1" depart="38" departLane="1" departSpeed="0"/>
    <vehicle id="C_13" type="typeC" route="route_3" depart="38" departLane="0" departSpeed="0"/>
    <vehicle id="B_15" type="typeB" route="route_1" depart="39" departLane="1" departSpeed="0"/>
    <vehicle id="C_14" type="typeC" route="route_3" depart="39" departLane="0" departSpeed="0"/>
    <vehicle id="A_17" type="typeA" route="route_0" depart="40" departLane="2" departSpeed="0"/>
    <vehicle id="C_15" type="typeC" route="route_3" depart="40" departLane="0" departSpeed="0"/>
    <vehicle id="C_16" type="typeC" route="route_3" depart="41" departLane="0" departSpeed="0"/>
    <vehicle id="B_16" type="typeB" route="route_1" depart="42" departLane="1" departSpeed="0"/>
    <vehicle id="C_17" type="typeC" route="route_3" depart="42" departLane="0" departSpeed="0"/>
    <vehicle id="A_18" type="typeA" route="route_0" depart="44" departLane="2" departSpeed="0"/>
    <vehicle id="C_18" type="typeC" route="route_3" depart="44" departLane="0" departSpeed="0"/>
    <vehicle id="A_19" type="typeA" route="route_0" depart="46" departLane="2" departSpeed="0"/>
    <vehicle id="B_17" type="typeB" route="route_1" depart="46" departLane="1" departSpeed="0"/>
    <vehicle id="C_19" type="typeC" route="route_3" depart="46" departLane="0" departSpeed="0"/>
    <vehicle id="A_20" type="typeA" route="route_0" depart="47" departLane="2" departSpeed="0"/>
    <vehicle id="B_18" type="typeB" route="route_1" depart="47" departLane="1" departSpeed="0"/>
    <vehicle id="C_20" type="typeC" route="route_3" depart="47" departLane="0" departSpeed="0"/>
    <vehicle id="A_21" type="typeA" route="route_0" depart="48" departLane="2" departSpeed="0"/>
    <vehicle id="A_22" type="typeA" route="route_0" depart="49" departLane="2" departSpeed="0"/>
    <vehicle id="B_19" type="typeB" route="route_1" depart="49" departLane="1" departSpeed="0"/>
    <vehicle id="C_21" type="typeC" route="route_3" depart="49" departLane="0" departSpeed="0"/>
    <vehicle id="B_20" type="typeB" route="route_1" depart="51" departLane="1" departSpeed="0"/>
    <vehicle id="C_22" type="typeC" route="route_3" depart="51" departLane="0" departSpeed="0"/>
    <vehicle id="C_23" type="typeC" route="route_3" depart="52" departLane="0" departSpeed="0"/>
    <vehicle id="A_23" type="typeA" route="route_0" depart="53" departLane="2" departSpeed="0"/>
    <vehicle id="C_24" type="typeC" route="route_3" depart="53" departLane="0" departSpeed="0"/>
    <vehicle id="B_21" type="typeB" route="route_1" depart="55" departLane="1" departSpeed="0"/>
    <vehicle id="B_22" type="typeB" route="route_1" depart="56" departLane="1" departSpeed="0"/>
    <vehicle id="C_25" type="typeC" route="route_3" depart="56" departLane="0" departSpeed="0"/>
    <vehicle id="C_26" type="typeC" route="route_3" depart="59" departLane="0" departSpeed="0"/>
    <vehicle id="B_23" type="typeB" route="route_1" depart="60" departLane="1" departSpeed="0"/>
    <vehicle id="C_27" type="typeC" route="route_3" depart="60" departLane="0" departSpeed="0"/>
    <vehicle id="A_24" type="typeA" route="route_0" depart="61" departLane="2" departSpeed="0"/>
    <vehicle id="B_24" type="typeB" route="route_1" depart="62" departLane="1" departSpeed="0"/>
    <vehicle id="C_28" type="typeC" route="route_3" depart="62" departLane="0" departSpeed="0"/>
    <vehicle id="A_25" type="typeA" route="route_0" depart="63" departLane="2" departSpeed="0"/>
    <vehicle id="C_29" type="typeC" route="route_3" depart="63" departLane="0" departSpeed="0"/>
    <vehicle id="B_25" type="typeB" route="route_1" depart="64" departLane="1" departSpeed="0"/>
    <vehicle id="C_30" type="typeC" route="route_3" depart="64" departLane="0" departSpeed="0"/>
    <vehicle id="B_26" type="typeB" route="route_1" depart="65" departLane="1" departSpeed="0"/>
    <vehicle id="C_31" type="typeC" route="route_3" depart="65" departLane="0" departSpeed="0"/>
    <vehicle id="A_26" type="typeA" route="route_0" depart="66" departLane="2" departSpeed="0"/>
    <vehicle id="B_27" type="typeB" route="route_1" depart="66" departLane="1" departSpeed="0"/>
    <vehicle id="C_32" type="typeC" route="route_3" depart="66" departLane="0" departSpeed="0"/>
    <vehicle id="C_33" type="typeC" route="route_3" depart="68" departLane="0" departSpeed="0"/>
    <vehicle id="B_28" type="typeB" route="route_1" depart="69" departLane="1" departSpeed="0"/>
    <vehicle id="B_29" type="typeB" route="route_1" depart="70" departLane="1" departSpeed="0"/>
    <vehicle id="A_27" type="typeA" route="route_0" depart="71" departLane="2" departSpeed="0"/>
    <vehicle id="B_30" type="typeB" route="route_1" depart="71" departLane="1" departSpeed="0"/>
    <vehicle id="C_34" type="typeC" route="route_3" depart="71" departLane="0" departSpeed="0"/>
    <vehicle id="A_28" type="typeA" route="route_0" depart="72" departLane="2" departSpeed="0"/>
    <vehicle id="A_29" type="typeA" route="route_0" depart="73" departLane="2" departSpeed="0"/>
    <vehicle id="C_35" type="typeC" route="route_3" depart="73" departLane="0" departSpeed="0"/>
    <vehicle id="A_30" type="typeA" route="route_0" depart="74" departLane="2" departSpeed="0"/>
    <vehicle id="B_31" type="typeB" route="route_1" depart="75" departLane="1" departSpeed="0"/>
    <vehicle id="C_36" type="typeC" route="route_3" depart="75" departLane="0" departSpeed="0"/>
    <vehicle id="B_32" type="typeB" route="route_1" depart="76" departLane="1" departSpeed="0"/>
    <vehicle id="B_33" type="typeB" route="route_1" depart="77" departLane="1" departSpeed="0"/>
    <vehicle id="C_37" type="typeC" route="route_3" depart="80" departLane="0" departSpeed="0"/>
    <vehicle id="B_34" type="typeB" route="route_1" depart="81" departLane="1" departSpeed="0"/>
    <vehicle id="C_38" type="typeC" route="route_3" depart="81" departLane="0" departSpeed="0"/>
    <vehicle id="B_35" type="typeB" route="route_1" depart="82" departLane="1" departSpeed="0"/>
    <vehicle id="A_31" type="typeA" route="route_0" depart="83" departLane="2" departSpeed="0"/>
    <vehicle id="A_32" type="typeA" route="route_0" depart="85" departLane="2" departSpeed="0"/>
    <vehicle id="B_36" type="typeB" route="route_1" depart="85" departLane="1" departSpeed="0"/>
    <vehicle id="C_39" type="typeC" route="route_3" depart="85" departLane="0" departSpeed="0"/>
    <vehicle id="B_37" type="typeB" route="route_1" depart="86" departLane="1" departSpeed="0"/>
    <vehicle id="C_40" type="typeC" route="route_3" depart="86" departLane="0" departSpeed="0"/>
    <vehicle id="B_38" type="typeB" route="route_1" depart="87" departLane="1" departSpeed="0"/>
    <vehicle id="C_41" type="typeC" route="route_3" depart="87" departLane="0" departSpeed="0"/>
    <vehicle id="C_42" type="typeC" route="route_3" depart="88" departLane="0" departSpeed="0"/>
    <vehicle id="C_43" type="typeC" route="route_3" depart="89" departLane="0" departSpeed="0"/>
    <vehicle id="B_39" type="typeB" route="route_1" depart="90" departLane="1" departSpeed="0"/>
    <vehicle id="C_44" type="typeC" route="route_3" depart="90" departLane="0" departSpeed="0"/>
    <vehicle id="A_33" type="typeA" route="route_0" depart="91" departLane="2" departSpeed="0"/>
    <vehicle id="B_40" type="typeB" route="route_1" depart="92" departLane="1" departSpeed="0"/>
    <vehicle id="C_45" type="typeC" route="route_3" depart="92" departLane="0" departSpeed="0"/>
    <vehicle id="A_34" type="typeA" route="route_0" depart="93" departLane="2" departSpeed="0"/>
    <vehicle id="A_35" type="typeA" route="route_0" depart="94" departLane="2" departSpeed="0"/>
    <vehicle id="C_46" type="typeC" route="route_3" depart="94" departLane="0" departSpeed="0"/>
    <vehicle id="A_36" type="typeA" route="route_0" depart="95" departLane="2" departSpeed="0"/>
    <vehicle id="C_47" type="typeC" route="route_3" depart="95" departLane="0" departSpeed="0"/>
    <vehicle id="C_48" type="typeC" route="route_3" depart="96" departLane="0" departSpeed="0"/>
    <vehicle id="A_37" type="typeA" route="route_0" depart="98" departLane="2" departSpeed="0"/>
    <vehicle id="B_41" type="typeB" route="route_1" depart="98" departLane="1" departSpeed="0"/>
    <vehicle id="A_38" type="typeA" route="route_0" depart="100" departLane="2" departSpeed="0"/>
    <vehicle id="C_49" type="typeC" route="route_3" depart="100" departLane="0" departSpeed="0"/>
    <vehicle id="A_39" type="typeA" route="route_0" depart="101" departLane="2" departSpeed="0"/>
    <vehicle id="A_40" type="typeA" route="route_0" depart="103" departLane="2" departSpeed="0"/>
    <vehicle id="C_50" type="typeC" route="route_3" depart="103" departLane="0" departSpeed="0"/>
    <vehicle id="B_42" type="typeB" route="route_1" depart="104" departLane="1" departSpeed="0"/>
    <vehicle id="B_43" type="typeB" route="route_1" depart="105" departLane="1" departSpeed="0"/>
    <vehicle id="A_41" type="typeA" route="route_0" depart="106" departLane="2" departSpeed="0"/>
    <vehicle id="B_44" type="typeB" route="route_1" depart="106" departLane="1" departSpeed="0"/>
    <vehicle id="B_45" type="typeB" route="route_1" depart="109" departLane="1" departSpeed="0"/>
    <vehicle id="C_51" type="typeC" route="route_3" depart="109" departLane="0" departSpeed="0"/>
    <vehicle id="C_52" type="typeC" route="route_3" depart="110" departLane="0" departSpeed="0"/>
    <vehicle id="A_42" type="typeA" route="route_0" depart="111" departLane="2" departSpeed="0"/>
    <vehicle id="C_53" type="typeC" route="route_3" depart="111" departLane="0" departSpeed="0"/>
    <vehicle id="B_46" type="typeB" route="route_1" depart="112" departLane="1" departSpeed="0"/>
    <vehicle id="C_54" type="typeC" route="route_3" depart="112" departLane="0" departSpeed="0"/>
    <vehicle id="A_43" type="typeA" route="route_0" depart="113" departLane="2" departSpeed="0"/>
    <vehicle id="C_55" type="typeC" route="route_3" depart="113" departLane="0" departSpeed="0"/>
    <vehicle id="B_47" type="typeB" route="route_1" depart="114" departLane="1" departSpeed="0"/>
    <vehicle id="C_56" type="typeC" route="route_3" depart="114" departLane="0" departSpeed="0"/>
    <vehicle id="A_44" type="typeA" route="route_0" depart="116" departLane="2" departSpeed="0"/>
    <vehicle id="C_57" type="typeC" route="route_3" depart="116" departLane="0" departSpeed="0"/>
    <vehicle id="B_48" type="typeB" route="route_1" depart="117" departLane="1" departSpeed="0"/>
    <vehicle id="B_49" type="typeB" route="route_1" depart="118" departLane="1" departSpeed="0"/>
    <vehicle id="C_58" type="typeC" route="route_3" depart="118" departLane="0" departSpeed="0"/>
    <vehicle id="B_50" type="typeB" route="route_1" depart="119" departLane="1" departSpeed="0"/>
    <vehicle id="B_51" type="typeB" route="route_1" depart="120" departLane="1" departSpeed="0"/>
    <vehicle id="B_52" type="typeB" route="route_1" depart="124" departLane="1" departSpeed="0"/>
    <vehicle id="A_45" type="typeA" route="route_0" depart="125" departLane="2" departSpeed="0"/>
    <vehicle id="B_53" type="typeB" route="route_1" depart="125" departLane="1" departSpeed="0"/>
    <vehicle id="B_54" type="typeB" route="route_1" depart="126" departLane="1" departSpeed="0"/>
    <vehicle id="A_46" type="typeA" route="route_0" depart="128" departLane="2" departSpeed="0"/>
    <vehicle id="B_55" type="typeB" route="route_1" depart="128" departLane="1" departSpeed="0"/>
    <vehicle id="C_59" type="typeC" route="route_3" depart="128" departLane="0" departSpeed="0"/>
    <vehicle id="A_47" type="typeA" route="route_0" depart="129" departLane="2" departSpeed="0"/>
    <vehicle id="C_60" type="typeC" route="route_3" depart="129" departLane="0" departSpeed="0"/>
    <vehicle id="A_48" type="typeA" route="route_0" depart="131" departLane="2" departSpeed="0"/>
    <vehicle id="A_49" type="typeA" route="route_0" depart="132" departLane="2" departSpeed="0"/>
    <vehicle id="B_56" type="typeB" route="route_1" depart="132" departLane="1" departSpeed="0"/>
    <vehicle id="A_50" type="typeA" route="route_0" depart="133" departLane="2" departSpeed="0"/>
    <vehicle id="C_61" type="typeC" route="route_3" depart="134" departLane="0" departSpeed="0"/>
    <vehicle id="B_57" type="typeB" route="route_1" depart="136" departLane="1" departSpeed="0"/>
    <vehicle id="A_51" type="typeA" route="route_0" depart="141" departLane="2" departSpeed="0"/>
    <vehicle id="B_58" type="typeB" route="route_1" depart="142" departLane="1" departSpeed="0"/>
    <vehicle id="C_62" type="typeC" route="route_3" depart="142" departLane="0" departSpeed="0"/>
    <vehicle id="B_59" type="typeB" route="route_1" depart="144" departLane="1" departSpeed="0"/>
    <vehicle id="A_52" type="typeA" route="route_0" depart="145" departLane="2" departSpeed="0"/>
    <vehicle id="B_60" type="typeB" route="route_1" depart="147" departLane="1" departSpeed="0"/>
    <vehicle id="B_61" type="typeB" route="route_1" depart="148" departLane="1" departSpeed="0"/>
    <vehicle id="C_63" type="typeC" route="route_3" depart="148" departLane="0" departSpeed="0"/>
    <vehicle id="A_53" type="typeA" route="route_0" depart="150" departLane="2" departSpeed="0"/>
    <vehicle id="C_64" type="typeC" route="route_3" depart="151" departLane="0" departSpeed="0"/>
    <vehicle id="A_54" type="typeA" route="route_0" depart="153" departLane="2" departSpeed="0"/>
    <vehicle id="B_62" type="typeB" route="route_1" depart="155" departLane="1" departSpeed="0"/>
    <vehicle id="C_65" type="typeC" route="route_3" depart="155" departLane="0" departSpeed="0"/>
    <vehicle id="B_63" type="typeB" route="route_1" depart="156" departLane="1" departSpeed="0"/>
    <vehicle id="A_55" type="typeA" route="route_0" depart="157" departLane="2" departSpeed="0"/>
    <vehicle id="B_64" type="typeB" route="route_1" depart="157" departLane="1" departSpeed="0"/>
    <vehicle id="B_65" type="typeB" route="route_1" depart="158" departLane="1" departSpeed="0"/>
    <vehicle id="C_66" type="typeC" route="route_3" depart="158" departLane="0" departSpeed="0"/>
    <vehicle id="C_67" type="typeC" route="route_3" depart="159" departLane="0" departSpeed="0"/>
    <vehicle id="B_66" type="typeB" route="route_1" depart="161" departLane="1" departSpeed="0"/>
    <vehicle id="A_56" type="typeA" route="route_0" depart="163" departLane="2" departSpeed="0"/>
    <vehicle id="B_67" type="typeB" route="route_1" depart="164" departLane="1" departSpeed="0"/>
    <vehicle id="C_68" type="typeC" route="route_3" depart="164" departLane="0" departSpeed="0"/>
    <vehicle id="B_68" type="typeB" route="route_1" depart="165" departLane="1" departSpeed="0"/>
    <vehicle id="C_69" type="typeC" route="route_3" depart="165" departLane="0" departSpeed="0"/>
    <vehicle id="A_57" type="typeA" route="route_0" depart="166" departLane="2" departSpeed="0"/>
    <vehicle id="C_70" type="typeC" route="route_3" depart="167" departLane="0" departSpeed="0"/>
    <vehicle id="A_58" type="typeA" route="route_0" depart="168" departLane="2" departSpeed="0"/>
    <vehicle id="C_71" type="typeC" route="route_3" depart="169" departLane="0" departSpeed="0"/>
    <vehicle id="B_69" type="typeB" route="route_1" depart="170" departLane="1" departSpeed="0"/>
    <vehicle id="C_72" type="typeC" route="route_3" depart="170" departLane="0" departSpeed="0"/>
    <vehicle id="B_70" type="typeB" route="route_1" depart="171" departLane="1" departSpeed="0"/>
    <vehicle id="B_71" type="typeB" route="route_1" depart="172" departLane="1" departSpeed="0"/>
    <vehicle id="A_59" type="typeA" route="route_0" depart="173" departLane="2" departSpeed="0"/>
    <vehicle id="B_72" type="typeB" route="route_1" depart="173" departLane="1" departSpeed="0"/>
    <vehicle id="A_60" type="typeA" route="route_0" depart="174" departLane="2" departSpeed="0"/>
    <vehicle id="B_73" type="typeB" route="route_1" depart="174" departLane="1" departSpeed="0"/>
    <vehicle id="C_73" type="typeC" route="route_3" depart="174" departLane="0" departSpeed="0"/>
    <vehicle id="B_74" type="typeB" route="route_1" depart="175" departLane="1" departSpeed="0"/>
    <vehicle id="B_75" type="typeB" route="route_1" depart="176" departLane="1" departSpeed="0"/>
    <vehicle id="C_74" type="typeC" route="route_3" depart="176" departLane="0" departSpeed="0"/>
    <vehicle id="B_76" type="typeB" route="route_1" depart="177" departLane="1" departSpeed="0"/>
    <vehicle id="A_61" type="typeA" route="route_0" depart="178" departLane="2" departSpeed="0"/>
    <vehicle id="B_77" type="typeB" route="route_1" depart="178" departLane="1" departSpeed="0"/>
    <vehicle id="C_75" type="typeC" route="route_3" depart="178" departLane="0" departSpeed="0"/>
    <vehicle id="C_76" type="typeC" route="route_3" depart="179" departLane="0" departSpeed="0"/>
    <vehicle id="A_62" type="typeA" route="route_0" depart="180" departLane="2" departSpeed="0"/>
    <vehicle id="C_77" type="typeC" route="route_3" depart="180" departLane="0" departSpeed="0"/>
    <vehicle id="A_63" type="typeA" route="route_0" depart="182" departLane="2" departSpeed="0"/>
    <vehicle id="C_78" type="typeC" route="route_3" depart="182" departLane="0" departSpeed="0"/>
    <vehicle id="B_78" type="typeB" route="route_1" depart="183" departLane="1" departSpeed="0"/>
    <vehicle id="C_79" type="typeC" route="route_3" depart="184" departLane="0" departSpeed="0"/>
    <vehicle id="B_79" type="typeB" route="route_1" depart="186" departLane="1" departSpeed="0"/>
    <vehicle id="C_80" type="typeC" route="route_3" depart="186" departLane="0" departSpeed="0"/>
    <vehicle id="A_64" type="typeA" route="route_0" depart="187" departLane="2" departSpeed="0"/>
    <vehicle id="B_80" type="typeB" route="route_1" depart="188" departLane="1" departSpeed="0"/>
    <vehicle id="A_65" type="typeA" route="route_0" depart="189" departLane="2" departSpeed="0"/>
    <vehicle id="A_66" type="typeA" route="route_0" depart="190" departLane="2" departSpeed="0"/>
    <vehicle id="B_81" type="typeB" route="route_1" depart="190" departLane="1" departSpeed="0"/>
    <vehicle id="B_82" type="typeB" route="route_1" depart="191" departLane="1" departSpeed="0"/>
    <vehicle id="B_83" type="typeB" route="route_1" depart="192" departLane="1" departSpeed="0"/>
    <vehicle id="B_84" type="typeB" route="route_1" depart="193" departLane="1" departSpeed="0"/>
    <vehicle id="A_67" type="typeA" route="route_0" depart="194" departLane="2" departSpeed="0"/>
    <vehicle id="C_81" type="typeC" route="route_3" depart="194" departLane="0" departSpeed="0"/>
    <vehicle id="B_85" type="typeB" route="route_1" depart="195" departLane="1" departSpeed="0"/>
    <vehicle id="C_82" type="typeC" route="route_3" depart="196" departLane="0" departSpeed="0"/>
    <vehicle id="C_83" type="typeC" route="route_3" depart="197" departLane="0" departSpeed="0"/>
    <vehicle id="C_84" type="typeC" route="route_3" depart="198" departLane="0" departSpeed="0"/>
    <vehicle id="B_86" type="typeB" route="route_1" depart="199" departLane="1" departSpeed="0"/>
    <vehicle id="A_68" type="typeA" route="route_0" depart="200" departLane="2" departSpeed="0"/>
    <vehicle id="A_69" type="typeA" route="route_0" depart="201" departLane="2" departSpeed="0"/>
    <vehicle id="B_87" type="typeB" route="route_1" depart="201" departLane="1" departSpeed="0"/>
    <vehicle id="A_70" type="typeA" route="route_0" depart="202" departLane="2" departSpeed="0"/>
    <vehicle id="B_88" type="typeB" route="route_1" depart="202" departLane="1" departSpeed="0"/>
    <vehicle id="C_85" type="typeC" route="route_3" depart="202" departLane="0" departSpeed="0"/>
    <vehicle id="A_71" type="typeA" route="route_0" depart="203" departLane="2" departSpeed="0"/>
    <vehicle id="B_89" type="typeB" route="route_1" depart="203" departLane="1" departSpeed="0"/>
    <vehicle id="B_90" type="typeB" route="route_1" depart="205" departLane="1" departSpeed="0"/>
    <vehicle id="C_86" type="typeC" route="route_3" depart="205" departLane="0" departSpeed="0"/>
    <vehicle id="B_91" type="typeB" route="route_1" depart="207" departLane="1" departSpeed="0"/>
    <vehicle id="B_92" type="typeB" route="route_1" depart="208" departLane="1" departSpeed="0"/>
    <vehicle id="A_72" type="typeA" route="route_0" depart="210" departLane="2" departSpeed="0"/>
    <vehicle id="B_93" type="typeB" route="route_1" depart="210" departLane="1" departSpeed="0"/>
    <vehicle id="A_73" type="typeA" route="route_0" depart="211" departLane="2" departSpeed="0"/>
    <vehicle id="A_74" type="typeA" route="route_0" depart="212" departLane="2" departSpeed="0"/>
    <vehicle id="A_75" type="typeA" route="route_0" depart="213" departLane="2" departSpeed="0"/>
    <vehicle id="C_87" type="typeC" route="route_3" depart="213" departLane="0" departSpeed="0"/>
    <vehicle id="A_76" type="typeA" route="route_0" depart="214" departLane="2" departSpeed="0"/>
    <vehicle id="C_88" type="typeC" route="route_3" depart="214" departLane="0" departSpeed="0"/>
    <vehicle id="A_77" type="typeA" route="route_0" depart="215" departLane="2" departSpeed="0"/>
    <vehicle id="B_94" type="typeB" route="route_1" depart="215" departLane="1" departSpeed="0"/>
    <vehicle id="B_95" type="typeB" route="route_1" depart="216" departLane="1" departSpeed="0"/>
    <vehicle id="C_89" type="typeC" route="route_3" depart="216" departLane="0" departSpeed="0"/>
    <vehicle id="B_96" type="typeB" route="route_1" depart="217" departLane="1" departSpeed="0"/>
    <vehicle id="A_78" type="typeA" route="route_0" depart="219" departLane="2" departSpeed="0"/>
    <vehicle id="C_90" type="typeC" route="route_3" depart="219" departLane="0" departSpeed="0"/>
    <vehicle id="B_97" type="typeB" route="route_1" depart="220" departLane="1" departSpeed="0"/>
    <vehicle id="C_91" type="typeC" route="route_3" depart="220" departLane="0" departSpeed="0"/>
    <vehicle id="B_98" type="typeB" route="route_1" depart="221" departLane="1" departSpeed="0"/>
    <vehicle id="C_92" type="typeC" route="route_3" depart="221" departLane="0" departSpeed="0"/>
    <vehicle id="A_79" type="typeA" route="route_0" depart="222" departLane="2" departSpeed="0"/>
    <vehicle id="B_99" type="typeB" route="route_1" depart="222" departLane="1" departSpeed="0"/>
    <vehicle id="B_100" type="typeB" route="route_1" depart="223" departLane="1" departSpeed="0"/>
    <vehicle id="C_93" type="typeC" route="route_3" depart="223" departLane="0" departSpeed="0"/>
    <vehicle id="A_80" type="typeA" route="route_0" depart="224" departLane="2" departSpeed="0"/>
    <vehicle id="C_94" type="typeC" route="route_3" depart="226" departLane="0" departSpeed="0"/>
    <vehicle id="A_81" type="typeA" route="route_0" depart="228" departLane="2" departSpeed="0"/>
    <vehicle id="C_95" type="typeC" route="route_3" depart="228" departLane="0" departSpeed="0"/>
    <vehicle id="A_82" type="typeA" route="route_0" depart="230" departLane="2" departSpeed="0"/>
    <vehicle id="A_83" type="typeA" route="route_0" depart="231" departLane="2" departSpeed="0"/>
    <vehicle id="A_84" type="typeA" route="route_0" depart="234" departLane="2" departSpeed="0"/>
    <vehicle id="C_96" type="typeC" route="route_3" depart="235" departLane="0" departSpeed="0"/>
    <vehicle id="A_85" type="typeA" route="route_0" depart="236" departLane="2" departSpeed="0"/>
    <vehicle id="C_97" type="typeC" route="route_3" depart="236" departLane="0" departSpeed="0"/>
    <vehicle id="A_86" type="typeA" route="route_0" depart="237" departLane="2" departSpeed="0"/>
    <vehicle id="C_98" type="typeC" route="route_3" depart="237" departLane="0" departSpeed="0"/>
    <vehicle id="A_87" type="typeA" route="route_0" depart="238" departLane="2" departSpeed="0"/>
    <vehicle id="C_99" type="typeC" route="route_3" depart="241" departLane="0" departSpeed="0"/>
    <vehicle id="A_88" type="typeA" route="route_0" depart="242" departLane="2" departSpeed="0"/>
    <vehicle id="C_100" type="typeC" route="route_3" depart="242" departLane="0" departSpeed="0"/>
    <vehicle id="A_89" type="typeA" route="route_0" depart="245" departLane="2" departSpeed="0"/>
    <vehicle id="A_90" type="typeA" route="route_0" depart="246" departLane="2" departSpeed="0"/>
    <vehicle id="A_91" type="typeA" route="route_0" depart="250" departLane="2" departSpeed="0"/>
    <vehicle id="A_92" type="typeA" route="route_0" depart="253" departLane="2" departSpeed="0"/>
    <vehicle id="A_93" type="typeA" route="route_0" depart="257" departLane="2" departSpeed="0"/>
    <vehicle id="A_94" type="typeA" route="route_0" depart="258" departLane="2" departSpeed="0"/>
    <vehicle id="A_95" type="typeA" route="route_0" depart="259" departLane="2" departSpeed="0"/>
    <vehicle id="A_96" type="typeA" route="route_0" depart="261" departLane="2" departSpeed="0"/>
    <vehicle id="A_97" type="typeA" route="route_0" depart="262" departLane="2" departSpeed="0"/>
    <vehicle id="A_98" type="typeA" route="route_0" depart="263" departLane="2" departSpeed="0"/>
    <vehicle id="A_99" type="typeA" route="route_0" depart="267" departLane="2" departSpeed="0"/>
    <vehicle id="A_100" type="typeA" route="route_0" depart="268" departLane="2" departSpeed="0"/>
</routes>
