<routes>
        <vType id="typeA" type="passenger" length="5" accel="1.5" decel="2" sigma="0.0" maxSpeed="20" color="yellow"/>
        <vType id="typeB" type="passenger" length="5" accel="1.5" decel="2" sigma="0.0" maxSpeed="20" color="blue"/>

        <route id="right" edges="E1 E2" />
    <vehicle id="B_1" type="typeB" route="right" depart="14" departLane="0" departSpeed="random"/>
    <vehicle id="B_2" type="typeB" route="right" depart="15" departLane="0" departSpeed="random"/>
    <vehicle id="A_1" type="typeA" route="right" depart="16" departLane="1" departSpeed="random"/>
    <vehicle id="B_3" type="typeB" route="right" depart="18" departLane="0" departSpeed="random"/>
    <vehicle id="B_4" type="typeB" route="right" depart="26" departLane="0" departSpeed="random"/>
    <vehicle id="A_2" type="typeA" route="right" depart="31" departLane="1" departSpeed="random"/>
    <vehicle id="A_3" type="typeA" route="right" depart="38" departLane="1" departSpeed="random"/>
    <vehicle id="B_5" type="typeB" route="right" depart="40" departLane="0" departSpeed="random"/>
    <vehicle id="A_4" type="typeA" route="right" depart="42" departLane="1" departSpeed="random"/>
    <vehicle id="A_5" type="typeA" route="right" depart="49" departLane="1" departSpeed="random"/>
    <vehicle id="A_6" type="typeA" route="right" depart="51" departLane="1" departSpeed="random"/>
    <vehicle id="B_6" type="typeB" route="right" depart="53" departLane="0" departSpeed="random"/>
    <vehicle id="B_7" type="typeB" route="right" depart="58" departLane="0" departSpeed="random"/>
    <vehicle id="A_7" type="typeA" route="right" depart="59" departLane="1" departSpeed="random"/>
    <vehicle id="B_8" type="typeB" route="right" depart="59" departLane="0" departSpeed="random"/>
    <vehicle id="B_9" type="typeB" route="right" depart="60" departLane="0" departSpeed="random"/>
    <vehicle id="A_8" type="typeA" route="right" depart="70" departLane="1" departSpeed="random"/>
    <vehicle id="A_9" type="typeA" route="right" depart="73" departLane="1" departSpeed="random"/>
    <vehicle id="B_10" type="typeB" route="right" depart="76" departLane="0" departSpeed="random"/>
    <vehicle id="B_11" type="typeB" route="right" depart="85" departLane="0" departSpeed="random"/>
    <vehicle id="B_12" type="typeB" route="right" depart="91" departLane="0" departSpeed="random"/>
    <vehicle id="B_13" type="typeB" route="right" depart="99" departLane="0" departSpeed="random"/>
    <vehicle id="A_10" type="typeA" route="right" depart="105" departLane="1" departSpeed="random"/>
    <vehicle id="B_14" type="typeB" route="right" depart="106" departLane="0" departSpeed="random"/>
    <vehicle id="B_15" type="typeB" route="right" depart="115" departLane="0" departSpeed="random"/>
    <vehicle id="A_11" type="typeA" route="right" depart="120" departLane="1" departSpeed="random"/>
    <vehicle id="B_16" type="typeB" route="right" depart="128" departLane="0" departSpeed="random"/>
    <vehicle id="B_17" type="typeB" route="right" depart="129" departLane="0" departSpeed="random"/>
    <vehicle id="B_18" type="typeB" route="right" depart="131" departLane="0" departSpeed="random"/>
    <vehicle id="A_12" type="typeA" route="right" depart="135" departLane="1" departSpeed="random"/>
    <vehicle id="A_13" type="typeA" route="right" depart="137" departLane="1" departSpeed="random"/>
    <vehicle id="B_19" type="typeB" route="right" depart="137" departLane="0" departSpeed="random"/>
    <vehicle id="B_20" type="typeB" route="right" depart="142" departLane="0" departSpeed="random"/>
    <vehicle id="A_14" type="typeA" route="right" depart="150" departLane="1" departSpeed="random"/>
    <vehicle id="A_15" type="typeA" route="right" depart="155" departLane="1" departSpeed="random"/>
    <vehicle id="A_16" type="typeA" route="right" depart="159" departLane="1" departSpeed="random"/>
    <vehicle id="A_17" type="typeA" route="right" depart="161" departLane="1" departSpeed="random"/>
    <vehicle id="A_18" type="typeA" route="right" depart="173" departLane="1" departSpeed="random"/>
    <vehicle id="A_19" type="typeA" route="right" depart="175" departLane="1" departSpeed="random"/>
    <vehicle id="B_21" type="typeB" route="right" depart="176" departLane="0" departSpeed="random"/>
    <vehicle id="B_22" type="typeB" route="right" depart="182" departLane="0" departSpeed="random"/>
    <vehicle id="A_20" type="typeA" route="right" depart="184" departLane="1" departSpeed="random"/>
    <vehicle id="B_23" type="typeB" route="right" depart="195" departLane="0" departSpeed="random"/>
    <vehicle id="A_21" type="typeA" route="right" depart="202" departLane="1" departSpeed="random"/>
    <vehicle id="A_22" type="typeA" route="right" depart="203" departLane="1" departSpeed="random"/>
    <vehicle id="A_23" type="typeA" route="right" depart="207" departLane="1" departSpeed="random"/>
    <vehicle id="A_24" type="typeA" route="right" depart="210" departLane="1" departSpeed="random"/>
    <vehicle id="B_24" type="typeB" route="right" depart="211" departLane="0" departSpeed="random"/>
    <vehicle id="A_25" type="typeA" route="right" depart="213" departLane="1" departSpeed="random"/>
    <vehicle id="A_26" type="typeA" route="right" depart="218" departLane="1" departSpeed="random"/>
    <vehicle id="A_27" type="typeA" route="right" depart="220" departLane="1" departSpeed="random"/>
    <vehicle id="A_28" type="typeA" route="right" depart="223" departLane="1" departSpeed="random"/>
    <vehicle id="B_25" type="typeB" route="right" depart="223" departLane="0" departSpeed="random"/>
    <vehicle id="A_29" type="typeA" route="right" depart="224" departLane="1" departSpeed="random"/>
    <vehicle id="B_26" type="typeB" route="right" depart="226" departLane="0" departSpeed="random"/>
    <vehicle id="A_30" type="typeA" route="right" depart="228" departLane="1" departSpeed="random"/>
    <vehicle id="A_31" type="typeA" route="right" depart="234" departLane="1" departSpeed="random"/>
    <vehicle id="A_32" type="typeA" route="right" depart="240" departLane="1" departSpeed="random"/>
    <vehicle id="A_33" type="typeA" route="right" depart="241" departLane="1" departSpeed="random"/>
    <vehicle id="B_27" type="typeB" route="right" depart="241" departLane="0" departSpeed="random"/>
    <vehicle id="A_34" type="typeA" route="right" depart="243" departLane="1" departSpeed="random"/>
    <vehicle id="A_35" type="typeA" route="right" depart="244" departLane="1" departSpeed="random"/>
    <vehicle id="A_36" type="typeA" route="right" depart="245" departLane="1" departSpeed="random"/>
    <vehicle id="B_28" type="typeB" route="right" depart="246" departLane="0" departSpeed="random"/>
    <vehicle id="A_37" type="typeA" route="right" depart="257" departLane="1" departSpeed="random"/>
    <vehicle id="A_38" type="typeA" route="right" depart="258" departLane="1" departSpeed="random"/>
    <vehicle id="A_39" type="typeA" route="right" depart="263" departLane="1" departSpeed="random"/>
    <vehicle id="B_29" type="typeB" route="right" depart="263" departLane="0" departSpeed="random"/>
    <vehicle id="B_30" type="typeB" route="right" depart="268" departLane="0" departSpeed="random"/>
    <vehicle id="A_40" type="typeA" route="right" depart="269" departLane="1" departSpeed="random"/>
    <vehicle id="B_31" type="typeB" route="right" depart="279" departLane="0" departSpeed="random"/>
    <vehicle id="A_41" type="typeA" route="right" depart="280" departLane="1" departSpeed="random"/>
    <vehicle id="B_32" type="typeB" route="right" depart="282" departLane="0" departSpeed="random"/>
    <vehicle id="B_33" type="typeB" route="right" depart="290" departLane="0" departSpeed="random"/>
    <vehicle id="A_42" type="typeA" route="right" depart="293" departLane="1" departSpeed="random"/>
    <vehicle id="B_34" type="typeB" route="right" depart="310" departLane="0" departSpeed="random"/>
    <vehicle id="B_35" type="typeB" route="right" depart="311" departLane="0" departSpeed="random"/>
    <vehicle id="A_43" type="typeA" route="right" depart="313" departLane="1" departSpeed="random"/>
    <vehicle id="A_44" type="typeA" route="right" depart="315" departLane="1" departSpeed="random"/>
    <vehicle id="B_36" type="typeB" route="right" depart="322" departLane="0" departSpeed="random"/>
    <vehicle id="A_45" type="typeA" route="right" depart="327" departLane="1" departSpeed="random"/>
    <vehicle id="A_46" type="typeA" route="right" depart="328" departLane="1" departSpeed="random"/>
    <vehicle id="A_47" type="typeA" route="right" depart="333" departLane="1" departSpeed="random"/>
    <vehicle id="A_48" type="typeA" route="right" depart="334" departLane="1" departSpeed="random"/>
    <vehicle id="B_37" type="typeB" route="right" depart="345" departLane="0" departSpeed="random"/>
    <vehicle id="B_38" type="typeB" route="right" depart="348" departLane="0" departSpeed="random"/>
    <vehicle id="B_39" type="typeB" route="right" depart="349" departLane="0" departSpeed="random"/>
    <vehicle id="A_49" type="typeA" route="right" depart="372" departLane="1" departSpeed="random"/>
    <vehicle id="B_40" type="typeB" route="right" depart="390" departLane="0" departSpeed="random"/>
    <vehicle id="B_41" type="typeB" route="right" depart="404" departLane="0" departSpeed="random"/>
    <vehicle id="B_42" type="typeB" route="right" depart="409" departLane="0" departSpeed="random"/>
    <vehicle id="B_43" type="typeB" route="right" depart="410" departLane="0" departSpeed="random"/>
    <vehicle id="A_50" type="typeA" route="right" depart="414" departLane="1" departSpeed="random"/>
    <vehicle id="A_51" type="typeA" route="right" depart="415" departLane="1" departSpeed="random"/>
    <vehicle id="A_52" type="typeA" route="right" depart="429" departLane="1" departSpeed="random"/>
    <vehicle id="A_53" type="typeA" route="right" depart="441" departLane="1" departSpeed="random"/>
    <vehicle id="B_44" type="typeB" route="right" depart="441" departLane="0" departSpeed="random"/>
    <vehicle id="A_54" type="typeA" route="right" depart="442" departLane="1" departSpeed="random"/>
    <vehicle id="A_55" type="typeA" route="right" depart="445" departLane="1" departSpeed="random"/>
    <vehicle id="A_56" type="typeA" route="right" depart="456" departLane="1" departSpeed="random"/>
    <vehicle id="B_45" type="typeB" route="right" depart="461" departLane="0" departSpeed="random"/>
    <vehicle id="A_57" type="typeA" route="right" depart="472" departLane="1" departSpeed="random"/>
    <vehicle id="A_58" type="typeA" route="right" depart="482" departLane="1" departSpeed="random"/>
    <vehicle id="A_59" type="typeA" route="right" depart="489" departLane="1" departSpeed="random"/>
    <vehicle id="B_46" type="typeB" route="right" depart="489" departLane="0" departSpeed="random"/>
    <vehicle id="A_60" type="typeA" route="right" depart="494" departLane="1" departSpeed="random"/>
    <vehicle id="B_47" type="typeB" route="right" depart="500" departLane="0" departSpeed="random"/>
    <vehicle id="A_61" type="typeA" route="right" depart="506" departLane="1" departSpeed="random"/>
    <vehicle id="A_62" type="typeA" route="right" depart="507" departLane="1" departSpeed="random"/>
    <vehicle id="B_48" type="typeB" route="right" depart="514" departLane="0" departSpeed="random"/>
    <vehicle id="B_49" type="typeB" route="right" depart="517" departLane="0" departSpeed="random"/>
    <vehicle id="B_50" type="typeB" route="right" depart="525" departLane="0" departSpeed="random"/>
    <vehicle id="A_63" type="typeA" route="right" depart="527" departLane="1" departSpeed="random"/>
    <vehicle id="A_64" type="typeA" route="right" depart="545" departLane="1" departSpeed="random"/>
    <vehicle id="B_51" type="typeB" route="right" depart="545" departLane="0" departSpeed="random"/>
    <vehicle id="A_65" type="typeA" route="right" depart="548" departLane="1" departSpeed="random"/>
    <vehicle id="A_66" type="typeA" route="right" depart="549" departLane="1" departSpeed="random"/>
    <vehicle id="A_67" type="typeA" route="right" depart="558" departLane="1" departSpeed="random"/>
    <vehicle id="A_68" type="typeA" route="right" depart="576" departLane="1" departSpeed="random"/>
    <vehicle id="A_69" type="typeA" route="right" depart="581" departLane="1" departSpeed="random"/>
    <vehicle id="A_70" type="typeA" route="right" depart="584" departLane="1" departSpeed="random"/>
    <vehicle id="A_71" type="typeA" route="right" depart="591" departLane="1" departSpeed="random"/>
    <vehicle id="B_52" type="typeB" route="right" depart="593" departLane="0" departSpeed="random"/>
    <vehicle id="A_72" type="typeA" route="right" depart="605" departLane="1" departSpeed="random"/>
    <vehicle id="A_73" type="typeA" route="right" depart="611" departLane="1" departSpeed="random"/>
    <vehicle id="B_53" type="typeB" route="right" depart="616" departLane="0" departSpeed="random"/>
    <vehicle id="A_74" type="typeA" route="right" depart="630" departLane="1" departSpeed="random"/>
    <vehicle id="A_75" type="typeA" route="right" depart="636" departLane="1" departSpeed="random"/>
    <vehicle id="A_76" type="typeA" route="right" depart="645" departLane="1" departSpeed="random"/>
    <vehicle id="A_77" type="typeA" route="right" depart="656" departLane="1" departSpeed="random"/>
    <vehicle id="A_78" type="typeA" route="right" depart="659" departLane="1" departSpeed="random"/>
    <vehicle id="B_54" type="typeB" route="right" depart="665" departLane="0" departSpeed="random"/>
    <vehicle id="B_55" type="typeB" route="right" depart="679" departLane="0" departSpeed="random"/>
    <vehicle id="A_79" type="typeA" route="right" depart="681" departLane="1" departSpeed="random"/>
    <vehicle id="B_56" type="typeB" route="right" depart="684" departLane="0" departSpeed="random"/>
    <vehicle id="A_80" type="typeA" route="right" depart="685" departLane="1" departSpeed="random"/>
    <vehicle id="A_81" type="typeA" route="right" depart="686" departLane="1" departSpeed="random"/>
    <vehicle id="A_82" type="typeA" route="right" depart="690" departLane="1" departSpeed="random"/>
    <vehicle id="A_83" type="typeA" route="right" depart="694" departLane="1" departSpeed="random"/>
    <vehicle id="A_84" type="typeA" route="right" depart="695" departLane="1" departSpeed="random"/>
    <vehicle id="A_85" type="typeA" route="right" depart="698" departLane="1" departSpeed="random"/>
    <vehicle id="A_86" type="typeA" route="right" depart="704" departLane="1" departSpeed="random"/>
    <vehicle id="A_87" type="typeA" route="right" depart="710" departLane="1" departSpeed="random"/>
    <vehicle id="A_88" type="typeA" route="right" depart="718" departLane="1" departSpeed="random"/>
    <vehicle id="B_57" type="typeB" route="right" depart="723" departLane="0" departSpeed="random"/>
    <vehicle id="A_89" type="typeA" route="right" depart="732" departLane="1" departSpeed="random"/>
    <vehicle id="A_90" type="typeA" route="right" depart="738" departLane="1" departSpeed="random"/>
    <vehicle id="A_91" type="typeA" route="right" depart="740" departLane="1" departSpeed="random"/>
    <vehicle id="A_92" type="typeA" route="right" depart="756" departLane="1" departSpeed="random"/>
    <vehicle id="A_93" type="typeA" route="right" depart="759" departLane="1" departSpeed="random"/>
    <vehicle id="A_94" type="typeA" route="right" depart="766" departLane="1" departSpeed="random"/>
    <vehicle id="A_95" type="typeA" route="right" depart="767" departLane="1" departSpeed="random"/>
    <vehicle id="B_58" type="typeB" route="right" depart="772" departLane="0" departSpeed="random"/>
    <vehicle id="A_96" type="typeA" route="right" depart="776" departLane="1" departSpeed="random"/>
    <vehicle id="B_59" type="typeB" route="right" depart="778" departLane="0" departSpeed="random"/>
    <vehicle id="A_97" type="typeA" route="right" depart="782" departLane="1" departSpeed="random"/>
    <vehicle id="B_60" type="typeB" route="right" depart="793" departLane="0" departSpeed="random"/>
    <vehicle id="B_61" type="typeB" route="right" depart="796" departLane="0" departSpeed="random"/>
    <vehicle id="A_98" type="typeA" route="right" depart="809" departLane="1" departSpeed="random"/>
    <vehicle id="B_62" type="typeB" route="right" depart="810" departLane="0" departSpeed="random"/>
    <vehicle id="B_63" type="typeB" route="right" depart="822" departLane="0" departSpeed="random"/>
    <vehicle id="A_99" type="typeA" route="right" depart="824" departLane="1" departSpeed="random"/>
    <vehicle id="A_100" type="typeA" route="right" depart="827" departLane="1" departSpeed="random"/>
    <vehicle id="B_64" type="typeB" route="right" depart="828" departLane="0" departSpeed="random"/>
    <vehicle id="A_101" type="typeA" route="right" depart="829" departLane="1" departSpeed="random"/>
    <vehicle id="A_102" type="typeA" route="right" depart="835" departLane="1" departSpeed="random"/>
    <vehicle id="A_103" type="typeA" route="right" depart="838" departLane="1" departSpeed="random"/>
    <vehicle id="B_65" type="typeB" route="right" depart="841" departLane="0" departSpeed="random"/>
    <vehicle id="A_104" type="typeA" route="right" depart="856" departLane="1" departSpeed="random"/>
    <vehicle id="A_105" type="typeA" route="right" depart="858" departLane="1" departSpeed="random"/>
    <vehicle id="B_66" type="typeB" route="right" depart="874" departLane="0" departSpeed="random"/>
    <vehicle id="A_106" type="typeA" route="right" depart="888" departLane="1" departSpeed="random"/>
    <vehicle id="B_67" type="typeB" route="right" depart="892" departLane="0" departSpeed="random"/>
    <vehicle id="A_107" type="typeA" route="right" depart="898" departLane="1" departSpeed="random"/>
    <vehicle id="A_108" type="typeA" route="right" depart="909" departLane="1" departSpeed="random"/>
    <vehicle id="A_109" type="typeA" route="right" depart="913" departLane="1" departSpeed="random"/>
    <vehicle id="A_110" type="typeA" route="right" depart="926" departLane="1" departSpeed="random"/>
    <vehicle id="A_111" type="typeA" route="right" depart="933" departLane="1" departSpeed="random"/>
    <vehicle id="A_112" type="typeA" route="right" depart="934" departLane="1" departSpeed="random"/>
    <vehicle id="B_68" type="typeB" route="right" depart="936" departLane="0" departSpeed="random"/>
    <vehicle id="B_69" type="typeB" route="right" depart="938" departLane="0" departSpeed="random"/>
    <vehicle id="A_113" type="typeA" route="right" depart="940" departLane="1" departSpeed="random"/>
    <vehicle id="A_114" type="typeA" route="right" depart="944" departLane="1" departSpeed="random"/>
    <vehicle id="A_115" type="typeA" route="right" depart="945" departLane="1" departSpeed="random"/>
    <vehicle id="A_116" type="typeA" route="right" depart="947" departLane="1" departSpeed="random"/>
    <vehicle id="A_117" type="typeA" route="right" depart="949" departLane="1" departSpeed="random"/>
    <vehicle id="B_70" type="typeB" route="right" depart="949" departLane="0" departSpeed="random"/>
    <vehicle id="A_118" type="typeA" route="right" depart="955" departLane="1" departSpeed="random"/>
    <vehicle id="A_119" type="typeA" route="right" depart="959" departLane="1" departSpeed="random"/>
    <vehicle id="A_120" type="typeA" route="right" depart="961" departLane="1" departSpeed="random"/>
    <vehicle id="B_71" type="typeB" route="right" depart="962" departLane="0" departSpeed="random"/>
    <vehicle id="B_72" type="typeB" route="right" depart="963" departLane="0" departSpeed="random"/>
    <vehicle id="A_121" type="typeA" route="right" depart="966" departLane="1" departSpeed="random"/>
    <vehicle id="A_122" type="typeA" route="right" depart="970" departLane="1" departSpeed="random"/>
    <vehicle id="A_123" type="typeA" route="right" depart="982" departLane="1" departSpeed="random"/>
    <vehicle id="A_124" type="typeA" route="right" depart="987" departLane="1" departSpeed="random"/>
    <vehicle id="A_125" type="typeA" route="right" depart="988" departLane="1" departSpeed="random"/>
    <vehicle id="B_73" type="typeB" route="right" depart="994" departLane="0" departSpeed="random"/>
    <vehicle id="B_74" type="typeB" route="right" depart="995" departLane="0" departSpeed="random"/>
    <vehicle id="B_75" type="typeB" route="right" depart="1001" departLane="0" departSpeed="random"/>
    <vehicle id="A_126" type="typeA" route="right" depart="1004" departLane="1" departSpeed="random"/>
    <vehicle id="B_76" type="typeB" route="right" depart="1014" departLane="0" departSpeed="random"/>
    <vehicle id="A_127" type="typeA" route="right" depart="1021" departLane="1" departSpeed="random"/>
    <vehicle id="B_77" type="typeB" route="right" depart="1022" departLane="0" departSpeed="random"/>
    <vehicle id="A_128" type="typeA" route="right" depart="1035" departLane="1" departSpeed="random"/>
    <vehicle id="B_78" type="typeB" route="right" depart="1038" departLane="0" departSpeed="random"/>
    <vehicle id="B_79" type="typeB" route="right" depart="1041" departLane="0" departSpeed="random"/>
    <vehicle id="A_129" type="typeA" route="right" depart="1045" departLane="1" departSpeed="random"/>
    <vehicle id="A_130" type="typeA" route="right" depart="1046" departLane="1" departSpeed="random"/>
    <vehicle id="A_131" type="typeA" route="right" depart="1047" departLane="1" departSpeed="random"/>
    <vehicle id="B_80" type="typeB" route="right" depart="1070" departLane="0" departSpeed="random"/>
    <vehicle id="A_132" type="typeA" route="right" depart="1078" departLane="1" departSpeed="random"/>
    <vehicle id="B_81" type="typeB" route="right" depart="1081" departLane="0" departSpeed="random"/>
    <vehicle id="B_82" type="typeB" route="right" depart="1083" departLane="0" departSpeed="random"/>
    <vehicle id="B_83" type="typeB" route="right" depart="1092" departLane="0" departSpeed="random"/>
    <vehicle id="A_133" type="typeA" route="right" depart="1093" departLane="1" departSpeed="random"/>
    <vehicle id="B_84" type="typeB" route="right" depart="1093" departLane="0" departSpeed="random"/>
    <vehicle id="B_85" type="typeB" route="right" depart="1096" departLane="0" departSpeed="random"/>
    <vehicle id="B_86" type="typeB" route="right" depart="1100" departLane="0" departSpeed="random"/>
    <vehicle id="A_134" type="typeA" route="right" depart="1104" departLane="1" departSpeed="random"/>
    <vehicle id="A_135" type="typeA" route="right" depart="1108" departLane="1" departSpeed="random"/>
    <vehicle id="B_87" type="typeB" route="right" depart="1109" departLane="0" departSpeed="random"/>
    <vehicle id="B_88" type="typeB" route="right" depart="1110" departLane="0" departSpeed="random"/>
    <vehicle id="B_89" type="typeB" route="right" depart="1111" departLane="0" departSpeed="random"/>
    <vehicle id="A_136" type="typeA" route="right" depart="1112" departLane="1" departSpeed="random"/>
    <vehicle id="B_90" type="typeB" route="right" depart="1119" departLane="0" departSpeed="random"/>
    <vehicle id="A_137" type="typeA" route="right" depart="1126" departLane="1" departSpeed="random"/>
    <vehicle id="A_138" type="typeA" route="right" depart="1130" departLane="1" departSpeed="random"/>
    <vehicle id="A_139" type="typeA" route="right" depart="1135" departLane="1" departSpeed="random"/>
    <vehicle id="B_91" type="typeB" route="right" depart="1139" departLane="0" departSpeed="random"/>
    <vehicle id="A_140" type="typeA" route="right" depart="1140" departLane="1" departSpeed="random"/>
    <vehicle id="A_141" type="typeA" route="right" depart="1142" departLane="1" departSpeed="random"/>
    <vehicle id="A_142" type="typeA" route="right" depart="1145" departLane="1" departSpeed="random"/>
    <vehicle id="B_92" type="typeB" route="right" depart="1148" departLane="0" departSpeed="random"/>
    <vehicle id="A_143" type="typeA" route="right" depart="1166" departLane="1" departSpeed="random"/>
    <vehicle id="A_144" type="typeA" route="right" depart="1168" departLane="1" departSpeed="random"/>
    <vehicle id="A_145" type="typeA" route="right" depart="1175" departLane="1" departSpeed="random"/>
    <vehicle id="B_93" type="typeB" route="right" depart="1181" departLane="0" departSpeed="random"/>
    <vehicle id="A_146" type="typeA" route="right" depart="1183" departLane="1" departSpeed="random"/>
    <vehicle id="A_147" type="typeA" route="right" depart="1187" departLane="1" departSpeed="random"/>
    <vehicle id="A_148" type="typeA" route="right" depart="1194" departLane="1" departSpeed="random"/>
    <vehicle id="B_94" type="typeB" route="right" depart="1200" departLane="0" departSpeed="random"/>
    <vehicle id="A_149" type="typeA" route="right" depart="1201" departLane="1" departSpeed="random"/>
    <vehicle id="B_95" type="typeB" route="right" depart="1214" departLane="0" departSpeed="random"/>
    <vehicle id="A_150" type="typeA" route="right" depart="1220" departLane="1" departSpeed="random"/>
    <vehicle id="A_151" type="typeA" route="right" depart="1224" departLane="1" departSpeed="random"/>
    <vehicle id="A_152" type="typeA" route="right" depart="1228" departLane="1" departSpeed="random"/>
    <vehicle id="B_96" type="typeB" route="right" depart="1232" departLane="0" departSpeed="random"/>
    <vehicle id="A_153" type="typeA" route="right" depart="1235" departLane="1" departSpeed="random"/>
    <vehicle id="B_97" type="typeB" route="right" depart="1237" departLane="0" departSpeed="random"/>
    <vehicle id="B_98" type="typeB" route="right" depart="1240" departLane="0" departSpeed="random"/>
    <vehicle id="B_99" type="typeB" route="right" depart="1251" departLane="0" departSpeed="random"/>
    <vehicle id="B_100" type="typeB" route="right" depart="1255" departLane="0" departSpeed="random"/>
    <vehicle id="A_154" type="typeA" route="right" depart="1265" departLane="1" departSpeed="random"/>
    <vehicle id="B_101" type="typeB" route="right" depart="1266" departLane="0" departSpeed="random"/>
    <vehicle id="A_155" type="typeA" route="right" depart="1277" departLane="1" departSpeed="random"/>
    <vehicle id="B_102" type="typeB" route="right" depart="1277" departLane="0" departSpeed="random"/>
    <vehicle id="B_103" type="typeB" route="right" depart="1278" departLane="0" departSpeed="random"/>
    <vehicle id="B_104" type="typeB" route="right" depart="1281" departLane="0" departSpeed="random"/>
    <vehicle id="B_105" type="typeB" route="right" depart="1284" departLane="0" departSpeed="random"/>
    <vehicle id="A_156" type="typeA" route="right" depart="1287" departLane="1" departSpeed="random"/>
    <vehicle id="A_157" type="typeA" route="right" depart="1289" departLane="1" departSpeed="random"/>
    <vehicle id="B_106" type="typeB" route="right" depart="1289" departLane="0" departSpeed="random"/>
    <vehicle id="B_107" type="typeB" route="right" depart="1295" departLane="0" departSpeed="random"/>
    <vehicle id="A_158" type="typeA" route="right" depart="1305" departLane="1" departSpeed="random"/>
    <vehicle id="B_108" type="typeB" route="right" depart="1308" departLane="0" departSpeed="random"/>
    <vehicle id="B_109" type="typeB" route="right" depart="1314" departLane="0" departSpeed="random"/>
    <vehicle id="A_159" type="typeA" route="right" depart="1315" departLane="1" departSpeed="random"/>
    <vehicle id="A_160" type="typeA" route="right" depart="1319" departLane="1" departSpeed="random"/>
    <vehicle id="A_161" type="typeA" route="right" depart="1326" departLane="1" departSpeed="random"/>
    <vehicle id="A_162" type="typeA" route="right" depart="1327" departLane="1" departSpeed="random"/>
    <vehicle id="A_163" type="typeA" route="right" depart="1328" departLane="1" departSpeed="random"/>
    <vehicle id="B_110" type="typeB" route="right" depart="1328" departLane="0" departSpeed="random"/>
    <vehicle id="A_164" type="typeA" route="right" depart="1340" departLane="1" departSpeed="random"/>
    <vehicle id="B_111" type="typeB" route="right" depart="1360" departLane="0" departSpeed="random"/>
    <vehicle id="A_165" type="typeA" route="right" depart="1363" departLane="1" departSpeed="random"/>
    <vehicle id="A_166" type="typeA" route="right" depart="1369" departLane="1" departSpeed="random"/>
    <vehicle id="A_167" type="typeA" route="right" depart="1371" departLane="1" departSpeed="random"/>
    <vehicle id="A_168" type="typeA" route="right" depart="1383" departLane="1" departSpeed="random"/>
    <vehicle id="B_112" type="typeB" route="right" depart="1388" departLane="0" departSpeed="random"/>
    <vehicle id="A_169" type="typeA" route="right" depart="1395" departLane="1" departSpeed="random"/>
    <vehicle id="A_170" type="typeA" route="right" depart="1398" departLane="1" departSpeed="random"/>
    <vehicle id="B_113" type="typeB" route="right" depart="1399" departLane="0" departSpeed="random"/>
    <vehicle id="A_171" type="typeA" route="right" depart="1405" departLane="1" departSpeed="random"/>
    <vehicle id="A_172" type="typeA" route="right" depart="1406" departLane="1" departSpeed="random"/>
    <vehicle id="A_173" type="typeA" route="right" depart="1414" departLane="1" departSpeed="random"/>
    <vehicle id="A_174" type="typeA" route="right" depart="1415" departLane="1" departSpeed="random"/>
    <vehicle id="A_175" type="typeA" route="right" depart="1422" departLane="1" departSpeed="random"/>
    <vehicle id="B_114" type="typeB" route="right" depart="1427" departLane="0" departSpeed="random"/>
    <vehicle id="B_115" type="typeB" route="right" depart="1431" departLane="0" departSpeed="random"/>
    <vehicle id="A_176" type="typeA" route="right" depart="1436" departLane="1" departSpeed="random"/>
    <vehicle id="A_177" type="typeA" route="right" depart="1445" departLane="1" departSpeed="random"/>