<?xml version="1.0" encoding="UTF-8"?>

<!-- generated on Sat Dec 26 20:42:39 2020 by Eclipse SUMO netedit Version 1.7.0
<configuration xmlns:xsi="http://www.w3.org/2001/XMLSchema-instance" xsi:noNamespaceSchemaLocation="http://sumo.dlr.de/xsd/netconvertConfiguration.xsd">

    <input>
        <sumo-net-file value="laneMerging.net.xml"/>
    </input>

    <output>
        <output-file value="laneMerging.net.xml"/>
    </output>

    <processing>
        <geometry.min-radius.fix.railways value="false"/>
        <geometry.max-grade.fix value="false"/>
        <offset.disable-normalization value="true"/>
        <lefthand value="false"/>
    </processing>

    <junctions>
        <no-internal-links value="true"/>
        <no-turnarounds value="true"/>
        <junctions.corner-detail value="5"/>
        <junctions.limit-turn-speed value="5.5"/>
        <rectangular-lane-cut value="false"/>
    </junctions>

    <pedestrian>
        <walkingareas value="false"/>
    </pedestrian>

    <report>
        <aggregate-warnings value="5"/>
    </report>

</configuration>
-->

<net version="1.6" junctionCornerDetail="5" limitTurnSpeed="5.50" xmlns:xsi="http://www.w3.org/2001/XMLSchema-instance" xsi:noNamespaceSchemaLocation="http://sumo.dlr.de/xsd/net_file.xsd">

    <location netOffset="0.00,0.00" convBoundary="0.00,0.00,350.00,0.00" origBoundary="-10000000000.00,-10000000000.00,10000000000.00,10000000000.00" projParameter="!"/>

    <edge id="E1" from="gneJ0" to="gneJ1" priority="-1">
        <stopOffset vClasses="all" value="0.00"/>
        <lane id="E1_0" index="0" speed="13.89" length="300.00" shape="0.00,-4.80 296.00,-4.80"/>
        <lane id="E1_1" index="1" speed="13.89" length="300.00" shape="0.00,-1.60 296.00,-1.60"/>
    </edge>
    <edge id="E2" from="gneJ1" to="gneJ2" priority="-1">
        <lane id="E2_0" index="0" speed="13.89" length="50.00" shape="304.00,-1.60 350.00,-1.60"/>
    </edge>

    <junction id="gneJ0" type="dead_end" x="0.00" y="0.00" incLanes="" intLanes="" shape="0.00,0.00 0.00,-6.40"/>
    <junction id="gneJ1" type="unregulated" x="300.00" y="0.00" incLanes="E1_0 E1_1" intLanes="" shape="304.00,0.00 304.00,-3.20 300.97,-4.03 299.03,-5.57 297.79,-6.16 296.00,-6.40 296.00,0.00"/>
    <junction id="gneJ2" type="dead_end" x="350.00" y="0.00" incLanes="E2_0" intLanes="" shape="350.00,-3.20 350.00,0.00"/>

    <connection from="E1" to="E2" fromLane="0" toLane="0" dir="s" state="M"/>
    <connection from="E1" to="E2" fromLane="1" toLane="0" keepClear="0" dir="s" state="M"/>

</net>
