<routes>
        <vType id="typeA" type="passenger" length="5" accel="1.5" decel="2" sigma="0.0" maxSpeed="20" color="yellow"/>
        <vType id="typeB" type="passenger" length="5" accel="1.5" decel="2" sigma="0.0" maxSpeed="20" color="blue"/>

        <route id="right" edges="E1 E2" />
    <vehicle id="A_1" type="typeA" route="right" depart="6" departLane="1" departSpeed="random"/>
    <vehicle id="B_1" type="typeB" route="right" depart="6" departLane="0" departSpeed="random"/>
    <vehicle id="B_2" type="typeB" route="right" depart="11" departLane="0" departSpeed="random"/>
    <vehicle id="A_2" type="typeA" route="right" depart="21" departLane="1" departSpeed="random"/>
    <vehicle id="A_3" type="typeA" route="right" depart="24" departLane="1" departSpeed="random"/>
    <vehicle id="B_3" type="typeB" route="right" depart="24" departLane="0" departSpeed="random"/>
    <vehicle id="B_4" type="typeB" route="right" depart="25" departLane="0" departSpeed="random"/>
    <vehicle id="A_4" type="typeA" route="right" depart="26" departLane="1" departSpeed="random"/>
    <vehicle id="A_5" type="typeA" route="right" depart="30" departLane="1" departSpeed="random"/>
    <vehicle id="B_5" type="typeB" route="right" depart="35" departLane="0" departSpeed="random"/>
    <vehicle id="A_6" type="typeA" route="right" depart="36" departLane="1" departSpeed="random"/>
    <vehicle id="A_7" type="typeA" route="right" depart="40" departLane="1" departSpeed="random"/>
    <vehicle id="A_8" type="typeA" route="right" depart="51" departLane="1" departSpeed="random"/>
    <vehicle id="B_6" type="typeB" route="right" depart="53" departLane="0" departSpeed="random"/>
    <vehicle id="A_9" type="typeA" route="right" depart="58" departLane="1" departSpeed="random"/>
    <vehicle id="B_7" type="typeB" route="right" depart="58" departLane="0" departSpeed="random"/>
    <vehicle id="A_10" type="typeA" route="right" depart="59" departLane="1" departSpeed="random"/>
    <vehicle id="B_8" type="typeB" route="right" depart="65" departLane="0" departSpeed="random"/>
    <vehicle id="A_11" type="typeA" route="right" depart="70" departLane="1" departSpeed="random"/>
    <vehicle id="B_9" type="typeB" route="right" depart="73" departLane="0" departSpeed="random"/>
    <vehicle id="A_12" type="typeA" route="right" depart="74" departLane="1" departSpeed="random"/>
    <vehicle id="A_13" type="typeA" route="right" depart="87" departLane="1" departSpeed="random"/>
    <vehicle id="B_10" type="typeB" route="right" depart="90" departLane="0" departSpeed="random"/>
    <vehicle id="A_14" type="typeA" route="right" depart="91" departLane="1" departSpeed="random"/>
    <vehicle id="A_15" type="typeA" route="right" depart="93" departLane="1" departSpeed="random"/>
    <vehicle id="B_11" type="typeB" route="right" depart="95" departLane="0" departSpeed="random"/>
    <vehicle id="B_12" type="typeB" route="right" depart="97" departLane="0" departSpeed="random"/>
    <vehicle id="B_13" type="typeB" route="right" depart="98" departLane="0" departSpeed="random"/>
    <vehicle id="A_16" type="typeA" route="right" depart="103" departLane="1" departSpeed="random"/>
    <vehicle id="B_14" type="typeB" route="right" depart="104" departLane="0" departSpeed="random"/>
    <vehicle id="A_17" type="typeA" route="right" depart="113" departLane="1" departSpeed="random"/>
    <vehicle id="B_15" type="typeB" route="right" depart="113" departLane="0" departSpeed="random"/>
    <vehicle id="A_18" type="typeA" route="right" depart="118" departLane="1" departSpeed="random"/>
    <vehicle id="A_19" type="typeA" route="right" depart="120" departLane="1" departSpeed="random"/>
    <vehicle id="B_16" type="typeB" route="right" depart="127" departLane="0" departSpeed="random"/>
    <vehicle id="A_20" type="typeA" route="right" depart="130" departLane="1" departSpeed="random"/>
    <vehicle id="A_21" type="typeA" route="right" depart="135" departLane="1" departSpeed="random"/>
    <vehicle id="A_22" type="typeA" route="right" depart="136" departLane="1" departSpeed="random"/>
    <vehicle id="B_17" type="typeB" route="right" depart="136" departLane="0" departSpeed="random"/>
    <vehicle id="B_18" type="typeB" route="right" depart="148" departLane="0" departSpeed="random"/>
    <vehicle id="B_19" type="typeB" route="right" depart="149" departLane="0" departSpeed="random"/>
    <vehicle id="A_23" type="typeA" route="right" depart="152" departLane="1" departSpeed="random"/>
    <vehicle id="B_20" type="typeB" route="right" depart="160" departLane="0" departSpeed="random"/>
    <vehicle id="B_21" type="typeB" route="right" depart="166" departLane="0" departSpeed="random"/>
    <vehicle id="A_24" type="typeA" route="right" depart="172" departLane="1" departSpeed="random"/>
    <vehicle id="A_25" type="typeA" route="right" depart="173" departLane="1" departSpeed="random"/>
    <vehicle id="A_26" type="typeA" route="right" depart="177" departLane="1" departSpeed="random"/>
    <vehicle id="A_27" type="typeA" route="right" depart="195" departLane="1" departSpeed="random"/>
    <vehicle id="A_28" type="typeA" route="right" depart="199" departLane="1" departSpeed="random"/>
    <vehicle id="A_29" type="typeA" route="right" depart="206" departLane="1" departSpeed="random"/>
    <vehicle id="A_30" type="typeA" route="right" depart="212" departLane="1" departSpeed="random"/>
    <vehicle id="A_31" type="typeA" route="right" depart="213" departLane="1" departSpeed="random"/>
    <vehicle id="A_32" type="typeA" route="right" depart="220" departLane="1" departSpeed="random"/>
    <vehicle id="B_22" type="typeB" route="right" depart="221" departLane="0" departSpeed="random"/>
    <vehicle id="A_33" type="typeA" route="right" depart="224" departLane="1" departSpeed="random"/>
    <vehicle id="B_23" type="typeB" route="right" depart="227" departLane="0" departSpeed="random"/>
    <vehicle id="A_34" type="typeA" route="right" depart="238" departLane="1" departSpeed="random"/>
    <vehicle id="A_35" type="typeA" route="right" depart="239" departLane="1" departSpeed="random"/>
    <vehicle id="B_24" type="typeB" route="right" depart="239" departLane="0" departSpeed="random"/>
    <vehicle id="A_36" type="typeA" route="right" depart="240" departLane="1" departSpeed="random"/>
    <vehicle id="A_37" type="typeA" route="right" depart="241" departLane="1" departSpeed="random"/>
    <vehicle id="A_38" type="typeA" route="right" depart="248" departLane="1" departSpeed="random"/>
    <vehicle id="A_39" type="typeA" route="right" depart="251" departLane="1" departSpeed="random"/>
    <vehicle id="A_40" type="typeA" route="right" depart="252" departLane="1" departSpeed="random"/>
    <vehicle id="B_25" type="typeB" route="right" depart="253" departLane="0" departSpeed="random"/>
    <vehicle id="A_41" type="typeA" route="right" depart="259" departLane="1" departSpeed="random"/>
    <vehicle id="B_26" type="typeB" route="right" depart="276" departLane="0" departSpeed="random"/>
    <vehicle id="A_42" type="typeA" route="right" depart="278" departLane="1" departSpeed="random"/>
    <vehicle id="A_43" type="typeA" route="right" depart="290" departLane="1" departSpeed="random"/>
    <vehicle id="A_44" type="typeA" route="right" depart="297" departLane="1" departSpeed="random"/>
    <vehicle id="A_45" type="typeA" route="right" depart="301" departLane="1" departSpeed="random"/>
    <vehicle id="B_27" type="typeB" route="right" depart="307" departLane="0" departSpeed="random"/>
    <vehicle id="A_46" type="typeA" route="right" depart="318" departLane="1" departSpeed="random"/>
    <vehicle id="A_47" type="typeA" route="right" depart="341" departLane="1" departSpeed="random"/>
    <vehicle id="B_28" type="typeB" route="right" depart="355" departLane="0" departSpeed="random"/>
    <vehicle id="A_48" type="typeA" route="right" depart="360" departLane="1" departSpeed="random"/>
    <vehicle id="A_49" type="typeA" route="right" depart="361" departLane="1" departSpeed="random"/>
    <vehicle id="B_29" type="typeB" route="right" depart="366" departLane="0" departSpeed="random"/>
    <vehicle id="A_50" type="typeA" route="right" depart="367" departLane="1" departSpeed="random"/>
    <vehicle id="B_30" type="typeB" route="right" depart="367" departLane="0" departSpeed="random"/>
    <vehicle id="A_51" type="typeA" route="right" depart="369" departLane="1" departSpeed="random"/>
    <vehicle id="A_52" type="typeA" route="right" depart="371" departLane="1" departSpeed="random"/>
    <vehicle id="B_31" type="typeB" route="right" depart="374" departLane="0" departSpeed="random"/>
    <vehicle id="A_53" type="typeA" route="right" depart="375" departLane="1" departSpeed="random"/>
    <vehicle id="B_32" type="typeB" route="right" depart="382" departLane="0" departSpeed="random"/>
    <vehicle id="A_54" type="typeA" route="right" depart="389" departLane="1" departSpeed="random"/>
    <vehicle id="A_55" type="typeA" route="right" depart="393" departLane="1" departSpeed="random"/>
    <vehicle id="A_56" type="typeA" route="right" depart="394" departLane="1" departSpeed="random"/>
    <vehicle id="A_57" type="typeA" route="right" depart="396" departLane="1" departSpeed="random"/>
    <vehicle id="A_58" type="typeA" route="right" depart="398" departLane="1" departSpeed="random"/>
    <vehicle id="A_59" type="typeA" route="right" depart="399" departLane="1" departSpeed="random"/>
    <vehicle id="B_33" type="typeB" route="right" depart="401" departLane="0" departSpeed="random"/>
    <vehicle id="A_60" type="typeA" route="right" depart="404" departLane="1" departSpeed="random"/>
    <vehicle id="A_61" type="typeA" route="right" depart="405" departLane="1" departSpeed="random"/>
    <vehicle id="A_62" type="typeA" route="right" depart="417" departLane="1" departSpeed="random"/>
    <vehicle id="A_63" type="typeA" route="right" depart="418" departLane="1" departSpeed="random"/>
    <vehicle id="B_34" type="typeB" route="right" depart="419" departLane="0" departSpeed="random"/>
    <vehicle id="A_64" type="typeA" route="right" depart="429" departLane="1" departSpeed="random"/>
    <vehicle id="B_35" type="typeB" route="right" depart="429" departLane="0" departSpeed="random"/>
    <vehicle id="B_36" type="typeB" route="right" depart="430" departLane="0" departSpeed="random"/>
    <vehicle id="A_65" type="typeA" route="right" depart="435" departLane="1" departSpeed="random"/>
    <vehicle id="A_66" type="typeA" route="right" depart="440" departLane="1" departSpeed="random"/>
    <vehicle id="A_67" type="typeA" route="right" depart="441" departLane="1" departSpeed="random"/>
    <vehicle id="B_37" type="typeB" route="right" depart="441" departLane="0" departSpeed="random"/>
    <vehicle id="B_38" type="typeB" route="right" depart="458" departLane="0" departSpeed="random"/>
    <vehicle id="A_68" type="typeA" route="right" depart="461" departLane="1" departSpeed="random"/>
    <vehicle id="A_69" type="typeA" route="right" depart="466" departLane="1" departSpeed="random"/>
    <vehicle id="B_39" type="typeB" route="right" depart="484" departLane="0" departSpeed="random"/>
    <vehicle id="A_70" type="typeA" route="right" depart="487" departLane="1" departSpeed="random"/>
    <vehicle id="A_71" type="typeA" route="right" depart="488" departLane="1" departSpeed="random"/>
    <vehicle id="B_40" type="typeB" route="right" depart="489" departLane="0" departSpeed="random"/>
    <vehicle id="A_72" type="typeA" route="right" depart="490" departLane="1" departSpeed="random"/>
    <vehicle id="B_41" type="typeB" route="right" depart="495" departLane="0" departSpeed="random"/>
    <vehicle id="B_42" type="typeB" route="right" depart="498" departLane="0" departSpeed="random"/>
    <vehicle id="B_43" type="typeB" route="right" depart="500" departLane="0" departSpeed="random"/>
    <vehicle id="A_73" type="typeA" route="right" depart="510" departLane="1" departSpeed="random"/>
    <vehicle id="A_74" type="typeA" route="right" depart="511" departLane="1" departSpeed="random"/>
    <vehicle id="B_44" type="typeB" route="right" depart="513" departLane="0" departSpeed="random"/>
    <vehicle id="B_45" type="typeB" route="right" depart="517" departLane="0" departSpeed="random"/>
    <vehicle id="A_75" type="typeA" route="right" depart="522" departLane="1" departSpeed="random"/>
    <vehicle id="A_76" type="typeA" route="right" depart="528" departLane="1" departSpeed="random"/>
    <vehicle id="A_77" type="typeA" route="right" depart="538" departLane="1" departSpeed="random"/>
    <vehicle id="B_46" type="typeB" route="right" depart="538" departLane="0" departSpeed="random"/>
    <vehicle id="A_78" type="typeA" route="right" depart="542" departLane="1" departSpeed="random"/>
    <vehicle id="A_79" type="typeA" route="right" depart="545" departLane="1" departSpeed="random"/>
    <vehicle id="A_80" type="typeA" route="right" depart="546" departLane="1" departSpeed="random"/>
    <vehicle id="A_81" type="typeA" route="right" depart="548" departLane="1" departSpeed="random"/>
    <vehicle id="A_82" type="typeA" route="right" depart="550" departLane="1" departSpeed="random"/>
    <vehicle id="B_47" type="typeB" route="right" depart="552" departLane="0" departSpeed="random"/>
    <vehicle id="B_48" type="typeB" route="right" depart="565" departLane="0" departSpeed="random"/>
    <vehicle id="B_49" type="typeB" route="right" depart="566" departLane="0" departSpeed="random"/>
    <vehicle id="A_83" type="typeA" route="right" depart="572" departLane="1" departSpeed="random"/>
    <vehicle id="A_84" type="typeA" route="right" depart="577" departLane="1" departSpeed="random"/>
    <vehicle id="A_85" type="typeA" route="right" depart="585" departLane="1" departSpeed="random"/>
    <vehicle id="B_50" type="typeB" route="right" depart="590" departLane="0" departSpeed="random"/>
    <vehicle id="A_86" type="typeA" route="right" depart="592" departLane="1" departSpeed="random"/>
    <vehicle id="B_51" type="typeB" route="right" depart="595" departLane="0" departSpeed="random"/>
    <vehicle id="A_87" type="typeA" route="right" depart="599" departLane="1" departSpeed="random"/>
    <vehicle id="A_88" type="typeA" route="right" depart="601" departLane="1" departSpeed="random"/>
    <vehicle id="A_89" type="typeA" route="right" depart="613" departLane="1" departSpeed="random"/>
    <vehicle id="B_52" type="typeB" route="right" depart="618" departLane="0" departSpeed="random"/>
    <vehicle id="A_90" type="typeA" route="right" depart="629" departLane="1" departSpeed="random"/>
    <vehicle id="B_53" type="typeB" route="right" depart="636" departLane="0" departSpeed="random"/>
    <vehicle id="B_54" type="typeB" route="right" depart="638" departLane="0" departSpeed="random"/>
    <vehicle id="A_91" type="typeA" route="right" depart="640" departLane="1" departSpeed="random"/>
    <vehicle id="A_92" type="typeA" route="right" depart="641" departLane="1" departSpeed="random"/>
    <vehicle id="A_93" type="typeA" route="right" depart="644" departLane="1" departSpeed="random"/>
    <vehicle id="B_55" type="typeB" route="right" depart="644" departLane="0" departSpeed="random"/>
    <vehicle id="B_56" type="typeB" route="right" depart="647" departLane="0" departSpeed="random"/>
    <vehicle id="A_94" type="typeA" route="right" depart="650" departLane="1" departSpeed="random"/>
    <vehicle id="B_57" type="typeB" route="right" depart="650" departLane="0" departSpeed="random"/>
    <vehicle id="A_95" type="typeA" route="right" depart="654" departLane="1" departSpeed="random"/>
    <vehicle id="A_96" type="typeA" route="right" depart="659" departLane="1" departSpeed="random"/>
    <vehicle id="A_97" type="typeA" route="right" depart="670" departLane="1" departSpeed="random"/>
    <vehicle id="A_98" type="typeA" route="right" depart="672" departLane="1" departSpeed="random"/>
    <vehicle id="A_99" type="typeA" route="right" depart="676" departLane="1" departSpeed="random"/>
    <vehicle id="B_58" type="typeB" route="right" depart="676" departLane="0" departSpeed="random"/>
    <vehicle id="A_100" type="typeA" route="right" depart="689" departLane="1" departSpeed="random"/>
    <vehicle id="A_101" type="typeA" route="right" depart="694" departLane="1" departSpeed="random"/>
    <vehicle id="A_102" type="typeA" route="right" depart="696" departLane="1" departSpeed="random"/>
    <vehicle id="A_103" type="typeA" route="right" depart="712" departLane="1" departSpeed="random"/>
    <vehicle id="B_59" type="typeB" route="right" depart="718" departLane="0" departSpeed="random"/>
    <vehicle id="A_104" type="typeA" route="right" depart="734" departLane="1" departSpeed="random"/>
    <vehicle id="B_60" type="typeB" route="right" depart="739" departLane="0" departSpeed="random"/>
    <vehicle id="A_105" type="typeA" route="right" depart="742" departLane="1" departSpeed="random"/>
    <vehicle id="A_106" type="typeA" route="right" depart="745" departLane="1" departSpeed="random"/>
    <vehicle id="B_61" type="typeB" route="right" depart="745" departLane="0" departSpeed="random"/>
    <vehicle id="A_107" type="typeA" route="right" depart="752" departLane="1" departSpeed="random"/>
    <vehicle id="B_62" type="typeB" route="right" depart="753" departLane="0" departSpeed="random"/>
    <vehicle id="A_108" type="typeA" route="right" depart="758" departLane="1" departSpeed="random"/>
    <vehicle id="A_109" type="typeA" route="right" depart="766" departLane="1" departSpeed="random"/>
    <vehicle id="A_110" type="typeA" route="right" depart="771" departLane="1" departSpeed="random"/>
    <vehicle id="A_111" type="typeA" route="right" depart="785" departLane="1" departSpeed="random"/>
    <vehicle id="B_63" type="typeB" route="right" depart="790" departLane="0" departSpeed="random"/>
    <vehicle id="A_112" type="typeA" route="right" depart="796" departLane="1" departSpeed="random"/>
    <vehicle id="A_113" type="typeA" route="right" depart="802" departLane="1" departSpeed="random"/>
    <vehicle id="B_64" type="typeB" route="right" depart="803" departLane="0" departSpeed="random"/>
    <vehicle id="A_114" type="typeA" route="right" depart="806" departLane="1" departSpeed="random"/>
    <vehicle id="B_65" type="typeB" route="right" depart="806" departLane="0" departSpeed="random"/>
    <vehicle id="A_115" type="typeA" route="right" depart="808" departLane="1" departSpeed="random"/>
    <vehicle id="A_116" type="typeA" route="right" depart="813" departLane="1" departSpeed="random"/>
    <vehicle id="B_66" type="typeB" route="right" depart="820" departLane="0" departSpeed="random"/>
    <vehicle id="A_117" type="typeA" route="right" depart="821" departLane="1" departSpeed="random"/>
    <vehicle id="A_118" type="typeA" route="right" depart="822" departLane="1" departSpeed="random"/>
    <vehicle id="A_119" type="typeA" route="right" depart="831" departLane="1" departSpeed="random"/>
    <vehicle id="A_120" type="typeA" route="right" depart="832" departLane="1" departSpeed="random"/>
    <vehicle id="A_121" type="typeA" route="right" depart="837" departLane="1" departSpeed="random"/>
    <vehicle id="A_122" type="typeA" route="right" depart="838" departLane="1" departSpeed="random"/>
    <vehicle id="A_123" type="typeA" route="right" depart="839" departLane="1" departSpeed="random"/>
    <vehicle id="A_124" type="typeA" route="right" depart="840" departLane="1" departSpeed="random"/>
    <vehicle id="A_125" type="typeA" route="right" depart="844" departLane="1" departSpeed="random"/>
    <vehicle id="A_126" type="typeA" route="right" depart="846" departLane="1" departSpeed="random"/>
    <vehicle id="A_127" type="typeA" route="right" depart="852" departLane="1" departSpeed="random"/>
    <vehicle id="B_67" type="typeB" route="right" depart="861" departLane="0" departSpeed="random"/>
    <vehicle id="A_128" type="typeA" route="right" depart="866" departLane="1" departSpeed="random"/>
    <vehicle id="B_68" type="typeB" route="right" depart="872" departLane="0" departSpeed="random"/>
    <vehicle id="A_129" type="typeA" route="right" depart="880" departLane="1" departSpeed="random"/>
    <vehicle id="A_130" type="typeA" route="right" depart="884" departLane="1" departSpeed="random"/>
    <vehicle id="A_131" type="typeA" route="right" depart="885" departLane="1" departSpeed="random"/>
    <vehicle id="A_132" type="typeA" route="right" depart="895" departLane="1" departSpeed="random"/>
    <vehicle id="A_133" type="typeA" route="right" depart="906" departLane="1" departSpeed="random"/>
    <vehicle id="A_134" type="typeA" route="right" depart="908" departLane="1" departSpeed="random"/>
    <vehicle id="A_135" type="typeA" route="right" depart="913" departLane="1" departSpeed="random"/>
    <vehicle id="A_136" type="typeA" route="right" depart="916" departLane="1" departSpeed="random"/>
    <vehicle id="A_137" type="typeA" route="right" depart="924" departLane="1" departSpeed="random"/>
    <vehicle id="A_138" type="typeA" route="right" depart="926" departLane="1" departSpeed="random"/>
    <vehicle id="A_139" type="typeA" route="right" depart="932" departLane="1" departSpeed="random"/>
    <vehicle id="A_140" type="typeA" route="right" depart="938" departLane="1" departSpeed="random"/>
    <vehicle id="B_69" type="typeB" route="right" depart="951" departLane="0" departSpeed="random"/>
    <vehicle id="A_141" type="typeA" route="right" depart="958" departLane="1" departSpeed="random"/>
    <vehicle id="A_142" type="typeA" route="right" depart="961" departLane="1" departSpeed="random"/>
    <vehicle id="B_70" type="typeB" route="right" depart="961" departLane="0" departSpeed="random"/>
    <vehicle id="A_143" type="typeA" route="right" depart="965" departLane="1" departSpeed="random"/>
    <vehicle id="A_144" type="typeA" route="right" depart="978" departLane="1" departSpeed="random"/>
    <vehicle id="A_145" type="typeA" route="right" depart="982" departLane="1" departSpeed="random"/>
    <vehicle id="B_71" type="typeB" route="right" depart="993" departLane="0" departSpeed="random"/>
    <vehicle id="A_146" type="typeA" route="right" depart="997" departLane="1" departSpeed="random"/>
    <vehicle id="A_147" type="typeA" route="right" depart="999" departLane="1" departSpeed="random"/>
    <vehicle id="B_72" type="typeB" route="right" depart="999" departLane="0" departSpeed="random"/>
    <vehicle id="A_148" type="typeA" route="right" depart="1019" departLane="1" departSpeed="random"/>
    <vehicle id="B_73" type="typeB" route="right" depart="1023" departLane="0" departSpeed="random"/>
    <vehicle id="B_74" type="typeB" route="right" depart="1026" departLane="0" departSpeed="random"/>
    <vehicle id="B_75" type="typeB" route="right" depart="1027" departLane="0" departSpeed="random"/>
    <vehicle id="A_149" type="typeA" route="right" depart="1033" departLane="1" departSpeed="random"/>
    <vehicle id="B_76" type="typeB" route="right" depart="1036" departLane="0" departSpeed="random"/>
    <vehicle id="A_150" type="typeA" route="right" depart="1038" departLane="1" departSpeed="random"/>
    <vehicle id="A_151" type="typeA" route="right" depart="1043" departLane="1" departSpeed="random"/>
    <vehicle id="A_152" type="typeA" route="right" depart="1045" departLane="1" departSpeed="random"/>
    <vehicle id="A_153" type="typeA" route="right" depart="1046" departLane="1" departSpeed="random"/>
    <vehicle id="B_77" type="typeB" route="right" depart="1048" departLane="0" departSpeed="random"/>
    <vehicle id="A_154" type="typeA" route="right" depart="1052" departLane="1" departSpeed="random"/>
    <vehicle id="B_78" type="typeB" route="right" depart="1054" departLane="0" departSpeed="random"/>
    <vehicle id="B_79" type="typeB" route="right" depart="1056" departLane="0" departSpeed="random"/>
    <vehicle id="A_155" type="typeA" route="right" depart="1058" departLane="1" departSpeed="random"/>
    <vehicle id="A_156" type="typeA" route="right" depart="1061" departLane="1" departSpeed="random"/>
    <vehicle id="B_80" type="typeB" route="right" depart="1061" departLane="0" departSpeed="random"/>
    <vehicle id="A_157" type="typeA" route="right" depart="1068" departLane="1" departSpeed="random"/>
    <vehicle id="B_81" type="typeB" route="right" depart="1070" departLane="0" departSpeed="random"/>
    <vehicle id="A_158" type="typeA" route="right" depart="1072" departLane="1" departSpeed="random"/>
    <vehicle id="B_82" type="typeB" route="right" depart="1075" departLane="0" departSpeed="random"/>
    <vehicle id="A_159" type="typeA" route="right" depart="1077" departLane="1" departSpeed="random"/>
    <vehicle id="A_160" type="typeA" route="right" depart="1078" departLane="1" departSpeed="random"/>
    <vehicle id="A_161" type="typeA" route="right" depart="1079" departLane="1" departSpeed="random"/>
    <vehicle id="A_162" type="typeA" route="right" depart="1081" departLane="1" departSpeed="random"/>
    <vehicle id="A_163" type="typeA" route="right" depart="1083" departLane="1" departSpeed="random"/>
    <vehicle id="B_83" type="typeB" route="right" depart="1083" departLane="0" departSpeed="random"/>
    <vehicle id="A_164" type="typeA" route="right" depart="1102" departLane="1" departSpeed="random"/>
    <vehicle id="A_165" type="typeA" route="right" depart="1105" departLane="1" departSpeed="random"/>
    <vehicle id="B_84" type="typeB" route="right" depart="1111" departLane="0" departSpeed="random"/>
    <vehicle id="A_166" type="typeA" route="right" depart="1116" departLane="1" departSpeed="random"/>
    <vehicle id="B_85" type="typeB" route="right" depart="1118" departLane="0" departSpeed="random"/>
    <vehicle id="A_167" type="typeA" route="right" depart="1119" departLane="1" departSpeed="random"/>
    <vehicle id="A_168" type="typeA" route="right" depart="1120" departLane="1" departSpeed="random"/>
    <vehicle id="B_86" type="typeB" route="right" depart="1121" departLane="0" departSpeed="random"/>
    <vehicle id="A_169" type="typeA" route="right" depart="1128" departLane="1" departSpeed="random"/>
    <vehicle id="A_170" type="typeA" route="right" depart="1134" departLane="1" departSpeed="random"/>
    <vehicle id="B_87" type="typeB" route="right" depart="1136" departLane="0" departSpeed="random"/>
    <vehicle id="A_171" type="typeA" route="right" depart="1144" departLane="1" departSpeed="random"/>
    <vehicle id="B_88" type="typeB" route="right" depart="1170" departLane="0" departSpeed="random"/>
    <vehicle id="A_172" type="typeA" route="right" depart="1180" departLane="1" departSpeed="random"/>
    <vehicle id="B_89" type="typeB" route="right" depart="1181" departLane="0" departSpeed="random"/>
    <vehicle id="B_90" type="typeB" route="right" depart="1199" departLane="0" departSpeed="random"/>
    <vehicle id="A_173" type="typeA" route="right" depart="1203" departLane="1" departSpeed="random"/>
    <vehicle id="B_91" type="typeB" route="right" depart="1205" departLane="0" departSpeed="random"/>
    <vehicle id="B_92" type="typeB" route="right" depart="1209" departLane="0" departSpeed="random"/>
    <vehicle id="A_174" type="typeA" route="right" depart="1210" departLane="1" departSpeed="random"/>
    <vehicle id="B_93" type="typeB" route="right" depart="1212" departLane="0" departSpeed="random"/>
    <vehicle id="A_175" type="typeA" route="right" depart="1214" departLane="1" departSpeed="random"/>
    <vehicle id="B_94" type="typeB" route="right" depart="1221" departLane="0" departSpeed="random"/>
    <vehicle id="A_176" type="typeA" route="right" depart="1225" departLane="1" departSpeed="random"/>
    <vehicle id="A_177" type="typeA" route="right" depart="1228" departLane="1" departSpeed="random"/>
    <vehicle id="B_95" type="typeB" route="right" depart="1232" departLane="0" departSpeed="random"/>
    <vehicle id="B_96" type="typeB" route="right" depart="1245" departLane="0" departSpeed="random"/>
    <vehicle id="B_97" type="typeB" route="right" depart="1252" departLane="0" departSpeed="random"/>
    <vehicle id="A_178" type="typeA" route="right" depart="1257" departLane="1" departSpeed="random"/>
    <vehicle id="A_179" type="typeA" route="right" depart="1258" departLane="1" departSpeed="random"/>
    <vehicle id="B_98" type="typeB" route="right" depart="1261" departLane="0" departSpeed="random"/>
    <vehicle id="B_99" type="typeB" route="right" depart="1265" departLane="0" departSpeed="random"/>
    <vehicle id="B_100" type="typeB" route="right" depart="1266" departLane="0" departSpeed="random"/>
    <vehicle id="A_180" type="typeA" route="right" depart="1270" departLane="1" departSpeed="random"/>
    <vehicle id="A_181" type="typeA" route="right" depart="1276" departLane="1" departSpeed="random"/>
    <vehicle id="A_182" type="typeA" route="right" depart="1277" departLane="1" departSpeed="random"/>
    <vehicle id="B_101" type="typeB" route="right" depart="1278" departLane="0" departSpeed="random"/>
    <vehicle id="B_102" type="typeB" route="right" depart="1279" departLane="0" departSpeed="random"/>
    <vehicle id="A_183" type="typeA" route="right" depart="1283" departLane="1" departSpeed="random"/>
    <vehicle id="A_184" type="typeA" route="right" depart="1288" departLane="1" departSpeed="random"/>
    <vehicle id="A_185" type="typeA" route="right" depart="1293" departLane="1" departSpeed="random"/>
    <vehicle id="A_186" type="typeA" route="right" depart="1296" departLane="1" departSpeed="random"/>
    <vehicle id="A_187" type="typeA" route="right" depart="1301" departLane="1" departSpeed="random"/>
    <vehicle id="A_188" type="typeA" route="right" depart="1307" departLane="1" departSpeed="random"/>
    <vehicle id="A_189" type="typeA" route="right" depart="1318" departLane="1" departSpeed="random"/>
    <vehicle id="A_190" type="typeA" route="right" depart="1327" departLane="1" departSpeed="random"/>