<additional>
   <laneAreaDetector id="dA" lane="E1_1" endPos="300" length="200" freq="10" file="output_dA.xml" />  
   <laneAreaDetector id="dB" lane="E1_0" endPos="300" length="200" freq="10" file="output_dB.xml" />
</additional>