<routes>
        <vType id="typeA" type="passenger" length="5" accel="1.5" decel="2" sigma="0.0" maxSpeed="20" color="yellow"/>
        <vType id="typeB" type="passenger" length="5" accel="1.5" decel="2" sigma="0.0" maxSpeed="20" color="blue"/>

        <route id="right" edges="E1 E2" />
    <vehicle id="A_1" type="typeA" route="right" depart="0" departLane="1" departSpeed="random"/>
    <vehicle id="B_1" type="typeB" route="right" depart="3" departLane="0" departSpeed="random"/>
    <vehicle id="A_2" type="typeA" route="right" depart="6" departLane="1" departSpeed="random"/>
    <vehicle id="B_2" type="typeB" route="right" depart="9" departLane="0" departSpeed="random"/>
    <vehicle id="B_3" type="typeB" route="right" depart="12" departLane="0" departSpeed="random"/>
    <vehicle id="A_3" type="typeA" route="right" depart="13" departLane="1" departSpeed="random"/>
    <vehicle id="B_4" type="typeB" route="right" depart="15" departLane="0" departSpeed="random"/>
    <vehicle id="B_5" type="typeB" route="right" depart="16" departLane="0" departSpeed="random"/>
    <vehicle id="B_6" type="typeB" route="right" depart="20" departLane="0" departSpeed="random"/>
    <vehicle id="A_4" type="typeA" route="right" depart="23" departLane="1" departSpeed="random"/>
    <vehicle id="A_5" type="typeA" route="right" depart="25" departLane="1" departSpeed="random"/>
    <vehicle id="A_6" type="typeA" route="right" depart="27" departLane="1" departSpeed="random"/>
    <vehicle id="A_7" type="typeA" route="right" depart="32" departLane="1" departSpeed="random"/>
    <vehicle id="B_7" type="typeB" route="right" depart="34" departLane="0" departSpeed="random"/>
    <vehicle id="A_8" type="typeA" route="right" depart="35" departLane="1" departSpeed="random"/>
    <vehicle id="B_8" type="typeB" route="right" depart="35" departLane="0" departSpeed="random"/>
    <vehicle id="B_9" type="typeB" route="right" depart="49" departLane="0" departSpeed="random"/>
    <vehicle id="B_10" type="typeB" route="right" depart="52" departLane="0" departSpeed="random"/>
    <vehicle id="A_9" type="typeA" route="right" depart="55" departLane="1" departSpeed="random"/>
    <vehicle id="A_10" type="typeA" route="right" depart="56" departLane="1" departSpeed="random"/>
    <vehicle id="B_11" type="typeB" route="right" depart="56" departLane="0" departSpeed="random"/>
    <vehicle id="B_12" type="typeB" route="right" depart="58" departLane="0" departSpeed="random"/>
    <vehicle id="A_11" type="typeA" route="right" depart="64" departLane="1" departSpeed="random"/>
    <vehicle id="A_12" type="typeA" route="right" depart="71" departLane="1" departSpeed="random"/>
    <vehicle id="A_13" type="typeA" route="right" depart="73" departLane="1" departSpeed="random"/>
    <vehicle id="A_14" type="typeA" route="right" depart="74" departLane="1" departSpeed="random"/>
    <vehicle id="A_15" type="typeA" route="right" depart="77" departLane="1" departSpeed="random"/>
    <vehicle id="B_13" type="typeB" route="right" depart="78" departLane="0" departSpeed="random"/>
    <vehicle id="A_16" type="typeA" route="right" depart="79" departLane="1" departSpeed="random"/>
    <vehicle id="A_17" type="typeA" route="right" depart="87" departLane="1" departSpeed="random"/>
    <vehicle id="B_14" type="typeB" route="right" depart="94" departLane="0" departSpeed="random"/>
    <vehicle id="B_15" type="typeB" route="right" depart="95" departLane="0" departSpeed="random"/>
    <vehicle id="A_18" type="typeA" route="right" depart="101" departLane="1" departSpeed="random"/>
    <vehicle id="B_16" type="typeB" route="right" depart="103" departLane="0" departSpeed="random"/>
    <vehicle id="A_19" type="typeA" route="right" depart="104" departLane="1" departSpeed="random"/>
    <vehicle id="B_17" type="typeB" route="right" depart="106" departLane="0" departSpeed="random"/>
    <vehicle id="B_18" type="typeB" route="right" depart="108" departLane="0" departSpeed="random"/>
    <vehicle id="A_20" type="typeA" route="right" depart="110" departLane="1" departSpeed="random"/>
    <vehicle id="B_19" type="typeB" route="right" depart="113" departLane="0" departSpeed="random"/>
    <vehicle id="B_20" type="typeB" route="right" depart="117" departLane="0" departSpeed="random"/>
    <vehicle id="B_21" type="typeB" route="right" depart="121" departLane="0" departSpeed="random"/>
    <vehicle id="A_21" type="typeA" route="right" depart="126" departLane="1" departSpeed="random"/>
    <vehicle id="B_22" type="typeB" route="right" depart="129" departLane="0" departSpeed="random"/>
    <vehicle id="A_22" type="typeA" route="right" depart="132" departLane="1" departSpeed="random"/>
    <vehicle id="B_23" type="typeB" route="right" depart="134" departLane="0" departSpeed="random"/>
    <vehicle id="A_23" type="typeA" route="right" depart="137" departLane="1" departSpeed="random"/>
    <vehicle id="A_24" type="typeA" route="right" depart="140" departLane="1" departSpeed="random"/>
    <vehicle id="A_25" type="typeA" route="right" depart="143" departLane="1" departSpeed="random"/>
    <vehicle id="B_24" type="typeB" route="right" depart="153" departLane="0" departSpeed="random"/>
    <vehicle id="B_25" type="typeB" route="right" depart="158" departLane="0" departSpeed="random"/>
    <vehicle id="A_26" type="typeA" route="right" depart="159" departLane="1" departSpeed="random"/>
    <vehicle id="B_26" type="typeB" route="right" depart="163" departLane="0" departSpeed="random"/>
    <vehicle id="A_27" type="typeA" route="right" depart="165" departLane="1" departSpeed="random"/>
    <vehicle id="A_28" type="typeA" route="right" depart="166" departLane="1" departSpeed="random"/>
    <vehicle id="B_27" type="typeB" route="right" depart="167" departLane="0" departSpeed="random"/>
    <vehicle id="B_28" type="typeB" route="right" depart="175" departLane="0" departSpeed="random"/>
    <vehicle id="A_29" type="typeA" route="right" depart="176" departLane="1" departSpeed="random"/>
    <vehicle id="A_30" type="typeA" route="right" depart="181" departLane="1" departSpeed="random"/>
    <vehicle id="A_31" type="typeA" route="right" depart="190" departLane="1" departSpeed="random"/>
    <vehicle id="B_29" type="typeB" route="right" depart="194" departLane="0" departSpeed="random"/>
    <vehicle id="B_30" type="typeB" route="right" depart="195" departLane="0" departSpeed="random"/>
    <vehicle id="A_32" type="typeA" route="right" depart="197" departLane="1" departSpeed="random"/>
    <vehicle id="A_33" type="typeA" route="right" depart="203" departLane="1" departSpeed="random"/>
    <vehicle id="B_31" type="typeB" route="right" depart="213" departLane="0" departSpeed="random"/>
    <vehicle id="A_34" type="typeA" route="right" depart="217" departLane="1" departSpeed="random"/>
    <vehicle id="A_35" type="typeA" route="right" depart="220" departLane="1" departSpeed="random"/>
    <vehicle id="B_32" type="typeB" route="right" depart="220" departLane="0" departSpeed="random"/>
    <vehicle id="B_33" type="typeB" route="right" depart="228" departLane="0" departSpeed="random"/>
    <vehicle id="A_36" type="typeA" route="right" depart="229" departLane="1" departSpeed="random"/>
    <vehicle id="B_34" type="typeB" route="right" depart="233" departLane="0" departSpeed="random"/>
    <vehicle id="B_35" type="typeB" route="right" depart="235" departLane="0" departSpeed="random"/>
    <vehicle id="B_36" type="typeB" route="right" depart="237" departLane="0" departSpeed="random"/>
    <vehicle id="A_37" type="typeA" route="right" depart="244" departLane="1" departSpeed="random"/>
    <vehicle id="A_38" type="typeA" route="right" depart="249" departLane="1" departSpeed="random"/>
    <vehicle id="B_37" type="typeB" route="right" depart="249" departLane="0" departSpeed="random"/>
    <vehicle id="B_38" type="typeB" route="right" depart="262" departLane="0" departSpeed="random"/>
    <vehicle id="B_39" type="typeB" route="right" depart="264" departLane="0" departSpeed="random"/>
    <vehicle id="A_39" type="typeA" route="right" depart="275" departLane="1" departSpeed="random"/>
    <vehicle id="B_40" type="typeB" route="right" depart="275" departLane="0" departSpeed="random"/>
    <vehicle id="B_41" type="typeB" route="right" depart="277" departLane="0" departSpeed="random"/>
    <vehicle id="A_40" type="typeA" route="right" depart="281" departLane="1" departSpeed="random"/>
    <vehicle id="B_42" type="typeB" route="right" depart="281" departLane="0" departSpeed="random"/>
    <vehicle id="A_41" type="typeA" route="right" depart="282" departLane="1" departSpeed="random"/>
    <vehicle id="A_42" type="typeA" route="right" depart="283" departLane="1" departSpeed="random"/>
    <vehicle id="A_43" type="typeA" route="right" depart="284" departLane="1" departSpeed="random"/>
    <vehicle id="A_44" type="typeA" route="right" depart="285" departLane="1" departSpeed="random"/>
    <vehicle id="A_45" type="typeA" route="right" depart="286" departLane="1" departSpeed="random"/>
    <vehicle id="B_43" type="typeB" route="right" depart="290" departLane="0" departSpeed="random"/>
    <vehicle id="A_46" type="typeA" route="right" depart="298" departLane="1" departSpeed="random"/>
    <vehicle id="A_47" type="typeA" route="right" depart="300" departLane="1" departSpeed="random"/>
    <vehicle id="A_48" type="typeA" route="right" depart="302" departLane="1" departSpeed="random"/>
    <vehicle id="A_49" type="typeA" route="right" depart="305" departLane="1" departSpeed="random"/>
    <vehicle id="B_44" type="typeB" route="right" depart="306" departLane="0" departSpeed="random"/>
    <vehicle id="A_50" type="typeA" route="right" depart="316" departLane="1" departSpeed="random"/>
    <vehicle id="B_45" type="typeB" route="right" depart="317" departLane="0" departSpeed="random"/>
    <vehicle id="B_46" type="typeB" route="right" depart="320" departLane="0" departSpeed="random"/>
    <vehicle id="A_51" type="typeA" route="right" depart="321" departLane="1" departSpeed="random"/>
    <vehicle id="B_47" type="typeB" route="right" depart="321" departLane="0" departSpeed="random"/>
    <vehicle id="A_52" type="typeA" route="right" depart="329" departLane="1" departSpeed="random"/>
    <vehicle id="A_53" type="typeA" route="right" depart="330" departLane="1" departSpeed="random"/>
    <vehicle id="B_48" type="typeB" route="right" depart="332" departLane="0" departSpeed="random"/>
    <vehicle id="A_54" type="typeA" route="right" depart="337" departLane="1" departSpeed="random"/>
    <vehicle id="B_49" type="typeB" route="right" depart="338" departLane="0" departSpeed="random"/>
    <vehicle id="A_55" type="typeA" route="right" depart="349" departLane="1" departSpeed="random"/>
    <vehicle id="B_50" type="typeB" route="right" depart="350" departLane="0" departSpeed="random"/>
    <vehicle id="A_56" type="typeA" route="right" depart="354" departLane="1" departSpeed="random"/>
    <vehicle id="B_51" type="typeB" route="right" depart="354" departLane="0" departSpeed="random"/>
    <vehicle id="B_52" type="typeB" route="right" depart="355" departLane="0" departSpeed="random"/>
    <vehicle id="B_53" type="typeB" route="right" depart="357" departLane="0" departSpeed="random"/>
    <vehicle id="B_54" type="typeB" route="right" depart="360" departLane="0" departSpeed="random"/>
    <vehicle id="B_55" type="typeB" route="right" depart="368" departLane="0" departSpeed="random"/>
    <vehicle id="B_56" type="typeB" route="right" depart="372" departLane="0" departSpeed="random"/>
    <vehicle id="A_57" type="typeA" route="right" depart="374" departLane="1" departSpeed="random"/>
    <vehicle id="B_57" type="typeB" route="right" depart="374" departLane="0" departSpeed="random"/>
    <vehicle id="B_58" type="typeB" route="right" depart="378" departLane="0" departSpeed="random"/>
    <vehicle id="B_59" type="typeB" route="right" depart="382" departLane="0" departSpeed="random"/>
    <vehicle id="A_58" type="typeA" route="right" depart="386" departLane="1" departSpeed="random"/>
    <vehicle id="B_60" type="typeB" route="right" depart="387" departLane="0" departSpeed="random"/>
    <vehicle id="B_61" type="typeB" route="right" depart="388" departLane="0" departSpeed="random"/>
    <vehicle id="A_59" type="typeA" route="right" depart="389" departLane="1" departSpeed="random"/>
    <vehicle id="B_62" type="typeB" route="right" depart="389" departLane="0" departSpeed="random"/>
    <vehicle id="B_63" type="typeB" route="right" depart="390" departLane="0" departSpeed="random"/>
    <vehicle id="A_60" type="typeA" route="right" depart="394" departLane="1" departSpeed="random"/>
    <vehicle id="A_61" type="typeA" route="right" depart="396" departLane="1" departSpeed="random"/>
    <vehicle id="A_62" type="typeA" route="right" depart="400" departLane="1" departSpeed="random"/>
    <vehicle id="A_63" type="typeA" route="right" depart="403" departLane="1" departSpeed="random"/>
    <vehicle id="B_64" type="typeB" route="right" depart="415" departLane="0" departSpeed="random"/>
    <vehicle id="A_64" type="typeA" route="right" depart="416" departLane="1" departSpeed="random"/>
    <vehicle id="B_65" type="typeB" route="right" depart="424" departLane="0" departSpeed="random"/>
    <vehicle id="A_65" type="typeA" route="right" depart="426" departLane="1" departSpeed="random"/>
    <vehicle id="B_66" type="typeB" route="right" depart="427" departLane="0" departSpeed="random"/>
    <vehicle id="A_66" type="typeA" route="right" depart="428" departLane="1" departSpeed="random"/>
    <vehicle id="B_67" type="typeB" route="right" depart="428" departLane="0" departSpeed="random"/>
    <vehicle id="A_67" type="typeA" route="right" depart="431" departLane="1" departSpeed="random"/>
    <vehicle id="B_68" type="typeB" route="right" depart="432" departLane="0" departSpeed="random"/>
    <vehicle id="A_68" type="typeA" route="right" depart="436" departLane="1" departSpeed="random"/>
    <vehicle id="A_69" type="typeA" route="right" depart="438" departLane="1" departSpeed="random"/>
    <vehicle id="B_69" type="typeB" route="right" depart="445" departLane="0" departSpeed="random"/>
    <vehicle id="A_70" type="typeA" route="right" depart="446" departLane="1" departSpeed="random"/>
    <vehicle id="A_71" type="typeA" route="right" depart="450" departLane="1" departSpeed="random"/>
    <vehicle id="B_70" type="typeB" route="right" depart="453" departLane="0" departSpeed="random"/>
    <vehicle id="A_72" type="typeA" route="right" depart="455" departLane="1" departSpeed="random"/>
    <vehicle id="A_73" type="typeA" route="right" depart="462" departLane="1" departSpeed="random"/>
    <vehicle id="A_74" type="typeA" route="right" depart="463" departLane="1" departSpeed="random"/>
    <vehicle id="B_71" type="typeB" route="right" depart="464" departLane="0" departSpeed="random"/>
    <vehicle id="A_75" type="typeA" route="right" depart="469" departLane="1" departSpeed="random"/>
    <vehicle id="A_76" type="typeA" route="right" depart="473" departLane="1" departSpeed="random"/>
    <vehicle id="A_77" type="typeA" route="right" depart="476" departLane="1" departSpeed="random"/>
    <vehicle id="A_78" type="typeA" route="right" depart="482" departLane="1" departSpeed="random"/>
    <vehicle id="B_72" type="typeB" route="right" depart="482" departLane="0" departSpeed="random"/>
    <vehicle id="A_79" type="typeA" route="right" depart="483" departLane="1" departSpeed="random"/>
    <vehicle id="B_73" type="typeB" route="right" depart="483" departLane="0" departSpeed="random"/>
    <vehicle id="A_80" type="typeA" route="right" depart="484" departLane="1" departSpeed="random"/>
    <vehicle id="A_81" type="typeA" route="right" depart="486" departLane="1" departSpeed="random"/>
    <vehicle id="A_82" type="typeA" route="right" depart="487" departLane="1" departSpeed="random"/>
    <vehicle id="A_83" type="typeA" route="right" depart="501" departLane="1" departSpeed="random"/>
    <vehicle id="A_84" type="typeA" route="right" depart="508" departLane="1" departSpeed="random"/>
    <vehicle id="B_74" type="typeB" route="right" depart="512" departLane="0" departSpeed="random"/>
    <vehicle id="B_75" type="typeB" route="right" depart="513" departLane="0" departSpeed="random"/>
    <vehicle id="A_85" type="typeA" route="right" depart="514" departLane="1" departSpeed="random"/>
    <vehicle id="B_76" type="typeB" route="right" depart="515" departLane="0" departSpeed="random"/>
    <vehicle id="B_77" type="typeB" route="right" depart="517" departLane="0" departSpeed="random"/>
    <vehicle id="A_86" type="typeA" route="right" depart="518" departLane="1" departSpeed="random"/>
    <vehicle id="B_78" type="typeB" route="right" depart="518" departLane="0" departSpeed="random"/>
    <vehicle id="B_79" type="typeB" route="right" depart="520" departLane="0" departSpeed="random"/>
    <vehicle id="B_80" type="typeB" route="right" depart="524" departLane="0" departSpeed="random"/>
    <vehicle id="A_87" type="typeA" route="right" depart="528" departLane="1" departSpeed="random"/>
    <vehicle id="B_81" type="typeB" route="right" depart="528" departLane="0" departSpeed="random"/>
    <vehicle id="B_82" type="typeB" route="right" depart="532" departLane="0" departSpeed="random"/>
    <vehicle id="A_88" type="typeA" route="right" depart="535" departLane="1" departSpeed="random"/>
    <vehicle id="B_83" type="typeB" route="right" depart="535" departLane="0" departSpeed="random"/>
    <vehicle id="A_89" type="typeA" route="right" depart="537" departLane="1" departSpeed="random"/>
    <vehicle id="B_84" type="typeB" route="right" depart="538" departLane="0" departSpeed="random"/>
    <vehicle id="A_90" type="typeA" route="right" depart="549" departLane="1" departSpeed="random"/>
    <vehicle id="A_91" type="typeA" route="right" depart="552" departLane="1" departSpeed="random"/>
    <vehicle id="A_92" type="typeA" route="right" depart="553" departLane="1" departSpeed="random"/>
    <vehicle id="B_85" type="typeB" route="right" depart="555" departLane="0" departSpeed="random"/>
    <vehicle id="B_86" type="typeB" route="right" depart="562" departLane="0" departSpeed="random"/>
    <vehicle id="A_93" type="typeA" route="right" depart="569" departLane="1" departSpeed="random"/>
    <vehicle id="B_87" type="typeB" route="right" depart="571" departLane="0" departSpeed="random"/>
    <vehicle id="A_94" type="typeA" route="right" depart="572" departLane="1" departSpeed="random"/>
    <vehicle id="A_95" type="typeA" route="right" depart="573" departLane="1" departSpeed="random"/>
    <vehicle id="A_96" type="typeA" route="right" depart="576" departLane="1" departSpeed="random"/>
    <vehicle id="B_88" type="typeB" route="right" depart="579" departLane="0" departSpeed="random"/>
    <vehicle id="B_89" type="typeB" route="right" depart="583" departLane="0" departSpeed="random"/>
    <vehicle id="B_90" type="typeB" route="right" depart="587" departLane="0" departSpeed="random"/>
    <vehicle id="A_97" type="typeA" route="right" depart="589" departLane="1" departSpeed="random"/>
    <vehicle id="B_91" type="typeB" route="right" depart="591" departLane="0" departSpeed="random"/>
    <vehicle id="B_92" type="typeB" route="right" depart="595" departLane="0" departSpeed="random"/>
    <vehicle id="A_98" type="typeA" route="right" depart="598" departLane="1" departSpeed="random"/>
</routes>
