<routes>
        <vType id="typeA" type="passenger" length="5" accel="1.5" decel="2" sigma="0.0" maxSpeed="20" color="yellow"/>
        <vType id="typeB" type="passenger" length="5" accel="1.5" decel="2" sigma="0.0" maxSpeed="20" color="blue"/>

        <route id="right" edges="E1 E2" />
    <vehicle id="A_1" type="typeA" route="right" depart="0" departLane="1" departSpeed="random"/>
    <vehicle id="B_1" type="typeB" route="right" depart="2" departLane="0" departSpeed="random"/>
    <vehicle id="A_2" type="typeA" route="right" depart="9" departLane="1" departSpeed="random"/>
    <vehicle id="B_2" type="typeB" route="right" depart="10" departLane="0" departSpeed="random"/>
    <vehicle id="A_3" type="typeA" route="right" depart="16" departLane="1" departSpeed="random"/>
    <vehicle id="B_3" type="typeB" route="right" depart="20" departLane="0" departSpeed="random"/>
    <vehicle id="A_4" type="typeA" route="right" depart="33" departLane="1" departSpeed="random"/>
    <vehicle id="B_4" type="typeB" route="right" depart="34" departLane="0" departSpeed="random"/>
    <vehicle id="A_5" type="typeA" route="right" depart="41" departLane="1" departSpeed="random"/>
    <vehicle id="A_6" type="typeA" route="right" depart="47" departLane="1" departSpeed="random"/>
    <vehicle id="A_7" type="typeA" route="right" depart="59" departLane="1" departSpeed="random"/>
    <vehicle id="B_5" type="typeB" route="right" depart="61" departLane="0" departSpeed="random"/>
    <vehicle id="B_6" type="typeB" route="right" depart="64" departLane="0" departSpeed="random"/>
    <vehicle id="B_7" type="typeB" route="right" depart="67" departLane="0" departSpeed="random"/>
    <vehicle id="A_8" type="typeA" route="right" depart="72" departLane="1" departSpeed="random"/>
    <vehicle id="A_9" type="typeA" route="right" depart="74" departLane="1" departSpeed="random"/>
    <vehicle id="B_8" type="typeB" route="right" depart="80" departLane="0" departSpeed="random"/>
    <vehicle id="A_10" type="typeA" route="right" depart="89" departLane="1" departSpeed="random"/>
    <vehicle id="B_9" type="typeB" route="right" depart="93" departLane="0" departSpeed="random"/>
    <vehicle id="A_11" type="typeA" route="right" depart="96" departLane="1" departSpeed="random"/>
    <vehicle id="B_10" type="typeB" route="right" depart="98" departLane="0" departSpeed="random"/>
    <vehicle id="B_11" type="typeB" route="right" depart="107" departLane="0" departSpeed="random"/>
    <vehicle id="A_12" type="typeA" route="right" depart="127" departLane="1" departSpeed="random"/>
    <vehicle id="A_13" type="typeA" route="right" depart="128" departLane="1" departSpeed="random"/>
    <vehicle id="B_12" type="typeB" route="right" depart="131" departLane="0" departSpeed="random"/>
    <vehicle id="B_13" type="typeB" route="right" depart="132" departLane="0" departSpeed="random"/>
    <vehicle id="A_14" type="typeA" route="right" depart="152" departLane="1" departSpeed="random"/>
    <vehicle id="A_15" type="typeA" route="right" depart="154" departLane="1" departSpeed="random"/>
    <vehicle id="B_14" type="typeB" route="right" depart="157" departLane="0" departSpeed="random"/>
    <vehicle id="B_15" type="typeB" route="right" depart="173" departLane="0" departSpeed="random"/>
    <vehicle id="B_16" type="typeB" route="right" depart="179" departLane="0" departSpeed="random"/>
    <vehicle id="B_17" type="typeB" route="right" depart="183" departLane="0" departSpeed="random"/>
    <vehicle id="B_18" type="typeB" route="right" depart="196" departLane="0" departSpeed="random"/>
    <vehicle id="B_19" type="typeB" route="right" depart="205" departLane="0" departSpeed="random"/>
    <vehicle id="A_16" type="typeA" route="right" depart="207" departLane="1" departSpeed="random"/>
    <vehicle id="A_17" type="typeA" route="right" depart="214" departLane="1" departSpeed="random"/>
    <vehicle id="B_20" type="typeB" route="right" depart="214" departLane="0" departSpeed="random"/>
    <vehicle id="A_18" type="typeA" route="right" depart="221" departLane="1" departSpeed="random"/>
    <vehicle id="B_21" type="typeB" route="right" depart="221" departLane="0" departSpeed="random"/>
    <vehicle id="B_22" type="typeB" route="right" depart="224" departLane="0" departSpeed="random"/>
    <vehicle id="B_23" type="typeB" route="right" depart="225" departLane="0" departSpeed="random"/>
    <vehicle id="A_19" type="typeA" route="right" depart="226" departLane="1" departSpeed="random"/>
    <vehicle id="A_20" type="typeA" route="right" depart="229" departLane="1" departSpeed="random"/>
    <vehicle id="A_21" type="typeA" route="right" depart="230" departLane="1" departSpeed="random"/>
    <vehicle id="A_22" type="typeA" route="right" depart="233" departLane="1" departSpeed="random"/>
    <vehicle id="A_23" type="typeA" route="right" depart="236" departLane="1" departSpeed="random"/>
    <vehicle id="B_24" type="typeB" route="right" depart="237" departLane="0" departSpeed="random"/>
    <vehicle id="A_24" type="typeA" route="right" depart="260" departLane="1" departSpeed="random"/>
    <vehicle id="B_25" type="typeB" route="right" depart="260" departLane="0" departSpeed="random"/>
    <vehicle id="A_25" type="typeA" route="right" depart="265" departLane="1" departSpeed="random"/>
    <vehicle id="A_26" type="typeA" route="right" depart="266" departLane="1" departSpeed="random"/>
    <vehicle id="A_27" type="typeA" route="right" depart="275" departLane="1" departSpeed="random"/>
    <vehicle id="B_26" type="typeB" route="right" depart="276" departLane="0" departSpeed="random"/>
    <vehicle id="A_28" type="typeA" route="right" depart="282" departLane="1" departSpeed="random"/>
    <vehicle id="A_29" type="typeA" route="right" depart="288" departLane="1" departSpeed="random"/>
    <vehicle id="A_30" type="typeA" route="right" depart="289" departLane="1" departSpeed="random"/>
    <vehicle id="B_27" type="typeB" route="right" depart="298" departLane="0" departSpeed="random"/>
</routes>
