<?xml version="1.0" encoding="UTF-8"?>

<!-- generated on Fri Mar  5 16:40:14 2021 by Eclipse SUMO netedit Version 1.7.0
<configuration xmlns:xsi="http://www.w3.org/2001/XMLSchema-instance" xsi:noNamespaceSchemaLocation="http://sumo.dlr.de/xsd/netconvertConfiguration.xsd">

    <output>
        <output-file value="/Users/jcp/Desktop/OneDrive%20-%20國立成功大學/Lab/Lane-Merging/test.net.xml"/>
    </output>

    <processing>
        <offset.disable-normalization value="true"/>
    </processing>

    <junctions>
        <no-turnarounds value="true"/>
    </junctions>

    <report>
        <aggregate-warnings value="5"/>
    </report>

</configuration>
-->

<net version="1.6" junctionCornerDetail="5" limitTurnSpeed="5.50" xmlns:xsi="http://www.w3.org/2001/XMLSchema-instance" xsi:noNamespaceSchemaLocation="http://sumo.dlr.de/xsd/net_file.xsd">

    <location netOffset="0.00,0.00" convBoundary="-1.60,59.67,60.81,59.82" origBoundary="10000000000.00,10000000000.00,-10000000000.00,-10000000000.00" projParameter="!"/>

    <edge id="gneE0" from="gneJ0" to="gneJ1" priority="-1">
        <lane id="gneE0_0" index="0" speed="13.89" length="62.41" shape="-1.59,58.07 60.81,58.22"/>
    </edge>

    <junction id="gneJ0" type="dead_end" x="-1.60" y="59.67" incLanes="" intLanes="" shape="-1.60,59.67 -1.59,56.47"/>
    <junction id="gneJ1" type="dead_end" x="60.81" y="59.82" incLanes="gneE0_0" intLanes="" shape="60.81,56.62 60.81,59.82"/>

</net>
