<routes>
        <vType id="typeA" type="passenger" length="5" accel="1.5" decel="2" sigma="0.0" maxSpeed="20" color="yellow"/>

        <route id="right" edges="gneE0" />
    <vehicle id="A_1" type="typeA" route="right" depart="1" departLane="0" departSpeed="random"/>

</routes>