<routes>
    <vType id="typeA" type="passenger" length="2" accel="1.5" decel="2" sigma="0.0" maxSpeed="20" color="yellow"/>
    <vType id="typeB" type="passenger" length="2" accel="1.5" decel="2" sigma="0.0" maxSpeed="20" color="blue"/>
    <vType id="typeC" type="passenger" length="2" accel="1.5" decel="2" sigma="0.0" maxSpeed="20" color="magenta"/>
    <route edges="A X" color="yellow" id="route_0"/>
    <route edges="B X" color="yellow" id="route_1"/>
    <route edges="B Y" color="yellow" id="route_2"/>
    <route edges="C Y" color="yellow" id="route_3"/>
    <vehicle id="A_1" type="typeA" route="route_0" depart="1" departLane="0" departSpeed="random"/>
    <vehicle id="A_2" type="typeA" route="route_0" depart="2" departLane="0" departSpeed="random"/>
    <vehicle id="A_3" type="typeA" route="route_0" depart="4" departLane="0" departSpeed="random"/>
    <vehicle id="B_1" type="typeB" route="route_1" depart="4" departLane="0" departSpeed="random"/>
    <vehicle id="C_1" type="typeC" route="route_3" depart="6" departLane="0" departSpeed="random"/>
    <vehicle id="A_4" type="typeA" route="route_0" depart="7" departLane="0" departSpeed="random"/>
    <vehicle id="C_2" type="typeC" route="route_3" depart="8" departLane="0" departSpeed="random"/>
    <vehicle id="B_2" type="typeB" route="route_1" depart="10" departLane="0" departSpeed="random"/>
    <vehicle id="A_5" type="typeA" route="route_0" depart="16" departLane="0" departSpeed="random"/>
    <vehicle id="B_3" type="typeB" route="route_1" depart="17" departLane="0" departSpeed="random"/>
    <vehicle id="B_4" type="typeB" route="route_1" depart="22" departLane="0" departSpeed="random"/>
    <vehicle id="C_3" type="typeC" route="route_3" depart="28" departLane="0" departSpeed="random"/>
    <vehicle id="B_5" type="typeB" route="route_1" depart="31" departLane="0" departSpeed="random"/>
    <vehicle id="C_4" type="typeC" route="route_3" depart="31" departLane="0" departSpeed="random"/>
    <vehicle id="B_6" type="typeB" route="route_1" depart="34" departLane="0" departSpeed="random"/>
    <vehicle id="A_6" type="typeA" route="route_0" depart="45" departLane="0" departSpeed="random"/>
    <vehicle id="C_5" type="typeC" route="route_3" depart="47" departLane="0" departSpeed="random"/>
    <vehicle id="C_6" type="typeC" route="route_3" depart="51" departLane="0" departSpeed="random"/>
    <vehicle id="A_7" type="typeA" route="route_0" depart="53" departLane="0" departSpeed="random"/>
    <vehicle id="C_7" type="typeC" route="route_3" depart="53" departLane="0" departSpeed="random"/>
    <vehicle id="C_8" type="typeC" route="route_3" depart="55" departLane="0" departSpeed="random"/>
    <vehicle id="C_9" type="typeC" route="route_3" depart="56" departLane="0" departSpeed="random"/>
    <vehicle id="B_7" type="typeB" route="route_1" depart="58" departLane="0" departSpeed="random"/>
    <vehicle id="C_10" type="typeC" route="route_3" depart="61" departLane="0" departSpeed="random"/>
    <vehicle id="C_11" type="typeC" route="route_3" depart="64" departLane="0" departSpeed="random"/>
    <vehicle id="C_12" type="typeC" route="route_3" depart="65" departLane="0" departSpeed="random"/>
    <vehicle id="C_13" type="typeC" route="route_3" depart="70" departLane="0" departSpeed="random"/>
    <vehicle id="A_8" type="typeA" route="route_0" depart="73" departLane="0" departSpeed="random"/>
    <vehicle id="B_8" type="typeB" route="route_1" depart="74" departLane="0" departSpeed="random"/>
    <vehicle id="A_9" type="typeA" route="route_0" depart="75" departLane="0" departSpeed="random"/>
    <vehicle id="A_10" type="typeA" route="route_0" depart="77" departLane="0" departSpeed="random"/>
    <vehicle id="B_9" type="typeB" route="route_1" depart="78" departLane="0" departSpeed="random"/>
    <vehicle id="C_14" type="typeC" route="route_3" depart="82" departLane="0" departSpeed="random"/>
    <vehicle id="B_10" type="typeB" route="route_1" depart="87" departLane="0" departSpeed="random"/>
    <vehicle id="A_11" type="typeA" route="route_0" depart="91" departLane="0" departSpeed="random"/>
    <vehicle id="A_12" type="typeA" route="route_0" depart="94" departLane="0" departSpeed="random"/>
    <vehicle id="C_15" type="typeC" route="route_3" depart="103" departLane="0" departSpeed="random"/>
    <vehicle id="C_16" type="typeC" route="route_3" depart="104" departLane="0" departSpeed="random"/>
    <vehicle id="A_13" type="typeA" route="route_0" depart="107" departLane="0" departSpeed="random"/>
    <vehicle id="C_17" type="typeC" route="route_3" depart="107" departLane="0" departSpeed="random"/>
    <vehicle id="B_11" type="typeB" route="route_1" depart="108" departLane="0" departSpeed="random"/>
    <vehicle id="B_12" type="typeB" route="route_1" depart="110" departLane="0" departSpeed="random"/>
    <vehicle id="A_14" type="typeA" route="route_0" depart="111" departLane="0" departSpeed="random"/>
    <vehicle id="A_15" type="typeA" route="route_0" depart="117" departLane="0" departSpeed="random"/>
    <vehicle id="B_13" type="typeB" route="route_1" depart="119" departLane="0" departSpeed="random"/>
    <vehicle id="C_18" type="typeC" route="route_3" depart="119" departLane="0" departSpeed="random"/>
    <vehicle id="A_16" type="typeA" route="route_0" depart="120" departLane="0" departSpeed="random"/>
    <vehicle id="B_14" type="typeB" route="route_1" depart="125" departLane="0" departSpeed="random"/>
    <vehicle id="A_17" type="typeA" route="route_0" depart="126" departLane="0" departSpeed="random"/>
    <vehicle id="C_19" type="typeC" route="route_3" depart="132" departLane="0" departSpeed="random"/>
    <vehicle id="B_15" type="typeB" route="route_1" depart="133" departLane="0" departSpeed="random"/>
    <vehicle id="A_18" type="typeA" route="route_0" depart="135" departLane="0" departSpeed="random"/>
    <vehicle id="A_19" type="typeA" route="route_0" depart="138" departLane="0" departSpeed="random"/>
    <vehicle id="A_20" type="typeA" route="route_0" depart="140" departLane="0" departSpeed="random"/>
    <vehicle id="B_16" type="typeB" route="route_1" depart="141" departLane="0" departSpeed="random"/>
    <vehicle id="C_20" type="typeC" route="route_3" depart="143" departLane="0" departSpeed="random"/>
    <vehicle id="A_21" type="typeA" route="route_0" depart="145" departLane="0" departSpeed="random"/>
    <vehicle id="A_22" type="typeA" route="route_0" depart="152" departLane="0" departSpeed="random"/>
    <vehicle id="A_23" type="typeA" route="route_0" depart="156" departLane="0" departSpeed="random"/>
    <vehicle id="C_21" type="typeC" route="route_3" depart="166" departLane="0" departSpeed="random"/>
    <vehicle id="A_24" type="typeA" route="route_0" depart="172" departLane="0" departSpeed="random"/>
    <vehicle id="B_17" type="typeB" route="route_1" depart="172" departLane="0" departSpeed="random"/>
    <vehicle id="B_18" type="typeB" route="route_1" depart="173" departLane="0" departSpeed="random"/>
    <vehicle id="B_19" type="typeB" route="route_1" depart="175" departLane="0" departSpeed="random"/>
    <vehicle id="A_25" type="typeA" route="route_0" depart="177" departLane="0" departSpeed="random"/>
    <vehicle id="B_20" type="typeB" route="route_1" depart="178" departLane="0" departSpeed="random"/>
    <vehicle id="C_22" type="typeC" route="route_3" depart="178" departLane="0" departSpeed="random"/>
    <vehicle id="A_26" type="typeA" route="route_0" depart="187" departLane="0" departSpeed="random"/>
    <vehicle id="C_23" type="typeC" route="route_3" depart="188" departLane="0" departSpeed="random"/>
    <vehicle id="A_27" type="typeA" route="route_0" depart="189" departLane="0" departSpeed="random"/>
    <vehicle id="B_21" type="typeB" route="route_1" depart="190" departLane="0" departSpeed="random"/>
    <vehicle id="B_22" type="typeB" route="route_1" depart="194" departLane="0" departSpeed="random"/>
    <vehicle id="C_24" type="typeC" route="route_3" depart="195" departLane="0" departSpeed="random"/>
    <vehicle id="C_25" type="typeC" route="route_3" depart="199" departLane="0" departSpeed="random"/>
    <vehicle id="B_23" type="typeB" route="route_1" depart="200" departLane="0" departSpeed="random"/>
    <vehicle id="C_26" type="typeC" route="route_3" depart="204" departLane="0" departSpeed="random"/>
    <vehicle id="B_24" type="typeB" route="route_1" depart="206" departLane="0" departSpeed="random"/>
    <vehicle id="B_25" type="typeB" route="route_1" depart="209" departLane="0" departSpeed="random"/>
    <vehicle id="C_27" type="typeC" route="route_3" depart="210" departLane="0" departSpeed="random"/>
    <vehicle id="C_28" type="typeC" route="route_3" depart="212" departLane="0" departSpeed="random"/>
    <vehicle id="C_29" type="typeC" route="route_3" depart="213" departLane="0" departSpeed="random"/>
    <vehicle id="B_26" type="typeB" route="route_1" depart="215" departLane="0" departSpeed="random"/>
    <vehicle id="C_30" type="typeC" route="route_3" depart="216" departLane="0" departSpeed="random"/>
    <vehicle id="C_31" type="typeC" route="route_3" depart="218" departLane="0" departSpeed="random"/>
    <vehicle id="A_28" type="typeA" route="route_0" depart="222" departLane="0" departSpeed="random"/>
    <vehicle id="C_32" type="typeC" route="route_3" depart="223" departLane="0" departSpeed="random"/>
    <vehicle id="A_29" type="typeA" route="route_0" depart="224" departLane="0" departSpeed="random"/>
    <vehicle id="A_30" type="typeA" route="route_0" depart="226" departLane="0" departSpeed="random"/>
    <vehicle id="A_31" type="typeA" route="route_0" depart="228" departLane="0" departSpeed="random"/>
    <vehicle id="A_32" type="typeA" route="route_0" depart="231" departLane="0" departSpeed="random"/>
    <vehicle id="A_33" type="typeA" route="route_0" depart="232" departLane="0" departSpeed="random"/>
    <vehicle id="A_34" type="typeA" route="route_0" depart="234" departLane="0" departSpeed="random"/>
    <vehicle id="B_27" type="typeB" route="route_1" depart="238" departLane="0" departSpeed="random"/>
    <vehicle id="C_33" type="typeC" route="route_3" depart="238" departLane="0" departSpeed="random"/>
    <vehicle id="C_34" type="typeC" route="route_3" depart="240" departLane="0" departSpeed="random"/>
    <vehicle id="B_28" type="typeB" route="route_1" depart="241" departLane="0" departSpeed="random"/>
    <vehicle id="B_29" type="typeB" route="route_1" depart="244" departLane="0" departSpeed="random"/>
    <vehicle id="A_35" type="typeA" route="route_0" depart="245" departLane="0" departSpeed="random"/>
    <vehicle id="B_30" type="typeB" route="route_1" depart="252" departLane="0" departSpeed="random"/>
    <vehicle id="C_35" type="typeC" route="route_3" depart="252" departLane="0" departSpeed="random"/>
    <vehicle id="C_36" type="typeC" route="route_3" depart="253" departLane="0" departSpeed="random"/>
    <vehicle id="A_36" type="typeA" route="route_0" depart="254" departLane="0" departSpeed="random"/>
    <vehicle id="A_37" type="typeA" route="route_0" depart="255" departLane="0" departSpeed="random"/>
    <vehicle id="B_31" type="typeB" route="route_1" depart="257" departLane="0" departSpeed="random"/>
    <vehicle id="A_38" type="typeA" route="route_0" depart="263" departLane="0" departSpeed="random"/>
    <vehicle id="B_32" type="typeB" route="route_1" depart="263" departLane="0" departSpeed="random"/>
    <vehicle id="C_37" type="typeC" route="route_3" depart="263" departLane="0" departSpeed="random"/>
    <vehicle id="C_38" type="typeC" route="route_3" depart="265" departLane="0" departSpeed="random"/>
    <vehicle id="A_39" type="typeA" route="route_0" depart="269" departLane="0" departSpeed="random"/>
    <vehicle id="A_40" type="typeA" route="route_0" depart="272" departLane="0" departSpeed="random"/>
    <vehicle id="C_39" type="typeC" route="route_3" depart="272" departLane="0" departSpeed="random"/>
    <vehicle id="B_33" type="typeB" route="route_1" depart="275" departLane="0" departSpeed="random"/>
    <vehicle id="C_40" type="typeC" route="route_3" depart="275" departLane="0" departSpeed="random"/>
    <vehicle id="A_41" type="typeA" route="route_0" depart="278" departLane="0" departSpeed="random"/>
    <vehicle id="C_41" type="typeC" route="route_3" depart="278" departLane="0" departSpeed="random"/>
    <vehicle id="A_42" type="typeA" route="route_0" depart="284" departLane="0" departSpeed="random"/>
    <vehicle id="C_42" type="typeC" route="route_3" depart="284" departLane="0" departSpeed="random"/>
    <vehicle id="A_43" type="typeA" route="route_0" depart="286" departLane="0" departSpeed="random"/>
    <vehicle id="A_44" type="typeA" route="route_0" depart="292" departLane="0" departSpeed="random"/>
    <vehicle id="C_43" type="typeC" route="route_3" depart="292" departLane="0" departSpeed="random"/>
    <vehicle id="B_34" type="typeB" route="route_1" depart="294" departLane="0" departSpeed="random"/>
    <vehicle id="B_35" type="typeB" route="route_1" depart="295" departLane="0" departSpeed="random"/>
    <vehicle id="B_36" type="typeB" route="route_1" depart="296" departLane="0" departSpeed="random"/>
    <vehicle id="B_37" type="typeB" route="route_1" depart="297" departLane="0" departSpeed="random"/>
    <vehicle id="C_44" type="typeC" route="route_3" depart="299" departLane="0" departSpeed="random"/>
    <vehicle id="A_45" type="typeA" route="route_0" depart="304" departLane="0" departSpeed="random"/>
    <vehicle id="B_38" type="typeB" route="route_1" depart="305" departLane="0" departSpeed="random"/>
    <vehicle id="B_39" type="typeB" route="route_1" depart="310" departLane="0" departSpeed="random"/>
    <vehicle id="A_46" type="typeA" route="route_0" depart="316" departLane="0" departSpeed="random"/>
    <vehicle id="A_47" type="typeA" route="route_0" depart="319" departLane="0" departSpeed="random"/>
    <vehicle id="B_40" type="typeB" route="route_1" depart="319" departLane="0" departSpeed="random"/>
    <vehicle id="A_48" type="typeA" route="route_0" depart="321" departLane="0" departSpeed="random"/>
    <vehicle id="A_49" type="typeA" route="route_0" depart="322" departLane="0" departSpeed="random"/>
    <vehicle id="C_45" type="typeC" route="route_3" depart="322" departLane="0" departSpeed="random"/>
    <vehicle id="C_46" type="typeC" route="route_3" depart="324" departLane="0" departSpeed="random"/>
    <vehicle id="B_41" type="typeB" route="route_1" depart="326" departLane="0" departSpeed="random"/>
    <vehicle id="A_50" type="typeA" route="route_0" depart="332" departLane="0" departSpeed="random"/>
    <vehicle id="B_42" type="typeB" route="route_1" depart="335" departLane="0" departSpeed="random"/>
    <vehicle id="B_43" type="typeB" route="route_1" depart="339" departLane="0" departSpeed="random"/>
    <vehicle id="B_44" type="typeB" route="route_1" depart="341" departLane="0" departSpeed="random"/>
    <vehicle id="B_45" type="typeB" route="route_1" depart="345" departLane="0" departSpeed="random"/>
    <vehicle id="B_46" type="typeB" route="route_1" depart="347" departLane="0" departSpeed="random"/>
    <vehicle id="A_51" type="typeA" route="route_0" depart="348" departLane="0" departSpeed="random"/>
    <vehicle id="B_47" type="typeB" route="route_1" depart="351" departLane="0" departSpeed="random"/>
    <vehicle id="A_52" type="typeA" route="route_0" depart="354" departLane="0" departSpeed="random"/>
    <vehicle id="A_53" type="typeA" route="route_0" depart="355" departLane="0" departSpeed="random"/>
    <vehicle id="C_47" type="typeC" route="route_3" depart="356" departLane="0" departSpeed="random"/>
    <vehicle id="A_54" type="typeA" route="route_0" depart="357" departLane="0" departSpeed="random"/>
    <vehicle id="A_55" type="typeA" route="route_0" depart="358" departLane="0" departSpeed="random"/>
    <vehicle id="C_48" type="typeC" route="route_3" depart="361" departLane="0" departSpeed="random"/>
    <vehicle id="B_48" type="typeB" route="route_1" depart="367" departLane="0" departSpeed="random"/>
    <vehicle id="A_56" type="typeA" route="route_0" depart="368" departLane="0" departSpeed="random"/>
    <vehicle id="C_49" type="typeC" route="route_3" depart="376" departLane="0" departSpeed="random"/>
    <vehicle id="C_50" type="typeC" route="route_3" depart="377" departLane="0" departSpeed="random"/>
    <vehicle id="C_51" type="typeC" route="route_3" depart="379" departLane="0" departSpeed="random"/>
    <vehicle id="B_49" type="typeB" route="route_1" depart="387" departLane="0" departSpeed="random"/>
    <vehicle id="A_57" type="typeA" route="route_0" depart="389" departLane="0" departSpeed="random"/>
    <vehicle id="A_58" type="typeA" route="route_0" depart="392" departLane="0" departSpeed="random"/>
    <vehicle id="A_59" type="typeA" route="route_0" depart="394" departLane="0" departSpeed="random"/>
    <vehicle id="B_50" type="typeB" route="route_1" depart="394" departLane="0" departSpeed="random"/>
    <vehicle id="B_51" type="typeB" route="route_1" depart="395" departLane="0" departSpeed="random"/>
    <vehicle id="A_60" type="typeA" route="route_0" depart="396" departLane="0" departSpeed="random"/>
    <vehicle id="B_52" type="typeB" route="route_1" depart="397" departLane="0" departSpeed="random"/>
    <vehicle id="C_52" type="typeC" route="route_3" depart="397" departLane="0" departSpeed="random"/>
    <vehicle id="A_61" type="typeA" route="route_0" depart="401" departLane="0" departSpeed="random"/>
    <vehicle id="C_53" type="typeC" route="route_3" depart="404" departLane="0" departSpeed="random"/>
    <vehicle id="B_53" type="typeB" route="route_1" depart="405" departLane="0" departSpeed="random"/>
    <vehicle id="A_62" type="typeA" route="route_0" depart="407" departLane="0" departSpeed="random"/>
    <vehicle id="C_54" type="typeC" route="route_3" depart="410" departLane="0" departSpeed="random"/>
    <vehicle id="A_63" type="typeA" route="route_0" depart="411" departLane="0" departSpeed="random"/>
    <vehicle id="B_54" type="typeB" route="route_1" depart="413" departLane="0" departSpeed="random"/>
    <vehicle id="A_64" type="typeA" route="route_0" depart="416" departLane="0" departSpeed="random"/>
    <vehicle id="A_65" type="typeA" route="route_0" depart="417" departLane="0" departSpeed="random"/>
    <vehicle id="B_55" type="typeB" route="route_1" depart="418" departLane="0" departSpeed="random"/>
    <vehicle id="A_66" type="typeA" route="route_0" depart="419" departLane="0" departSpeed="random"/>
    <vehicle id="B_56" type="typeB" route="route_1" depart="424" departLane="0" departSpeed="random"/>
    <vehicle id="A_67" type="typeA" route="route_0" depart="425" departLane="0" departSpeed="random"/>
    <vehicle id="C_55" type="typeC" route="route_3" depart="432" departLane="0" departSpeed="random"/>
    <vehicle id="C_56" type="typeC" route="route_3" depart="434" departLane="0" departSpeed="random"/>
    <vehicle id="B_57" type="typeB" route="route_1" depart="435" departLane="0" departSpeed="random"/>
    <vehicle id="B_58" type="typeB" route="route_1" depart="438" departLane="0" departSpeed="random"/>
    <vehicle id="C_57" type="typeC" route="route_3" depart="441" departLane="0" departSpeed="random"/>
    <vehicle id="C_58" type="typeC" route="route_3" depart="444" departLane="0" departSpeed="random"/>
    <vehicle id="A_68" type="typeA" route="route_0" depart="449" departLane="0" departSpeed="random"/>
    <vehicle id="A_69" type="typeA" route="route_0" depart="454" departLane="0" departSpeed="random"/>
    <vehicle id="A_70" type="typeA" route="route_0" depart="458" departLane="0" departSpeed="random"/>
    <vehicle id="A_71" type="typeA" route="route_0" depart="459" departLane="0" departSpeed="random"/>
    <vehicle id="A_72" type="typeA" route="route_0" depart="460" departLane="0" departSpeed="random"/>
    <vehicle id="C_59" type="typeC" route="route_3" depart="462" departLane="0" departSpeed="random"/>
    <vehicle id="B_59" type="typeB" route="route_1" depart="464" departLane="0" departSpeed="random"/>
    <vehicle id="B_60" type="typeB" route="route_1" depart="467" departLane="0" departSpeed="random"/>
    <vehicle id="A_73" type="typeA" route="route_0" depart="470" departLane="0" departSpeed="random"/>
    <vehicle id="B_61" type="typeB" route="route_1" depart="473" departLane="0" departSpeed="random"/>
    <vehicle id="C_60" type="typeC" route="route_3" depart="474" departLane="0" departSpeed="random"/>
    <vehicle id="B_62" type="typeB" route="route_1" depart="479" departLane="0" departSpeed="random"/>
    <vehicle id="B_63" type="typeB" route="route_1" depart="481" departLane="0" departSpeed="random"/>
    <vehicle id="B_64" type="typeB" route="route_1" depart="484" departLane="0" departSpeed="random"/>
    <vehicle id="C_61" type="typeC" route="route_3" depart="484" departLane="0" departSpeed="random"/>
    <vehicle id="C_62" type="typeC" route="route_3" depart="487" departLane="0" departSpeed="random"/>
    <vehicle id="A_74" type="typeA" route="route_0" depart="491" departLane="0" departSpeed="random"/>
    <vehicle id="C_63" type="typeC" route="route_3" depart="492" departLane="0" departSpeed="random"/>
    <vehicle id="A_75" type="typeA" route="route_0" depart="495" departLane="0" departSpeed="random"/>
    <vehicle id="C_64" type="typeC" route="route_3" depart="497" departLane="0" departSpeed="random"/>
    <vehicle id="C_65" type="typeC" route="route_3" depart="502" departLane="0" departSpeed="random"/>
    <vehicle id="A_76" type="typeA" route="route_0" depart="503" departLane="0" departSpeed="random"/>
    <vehicle id="B_65" type="typeB" route="route_1" depart="503" departLane="0" departSpeed="random"/>
    <vehicle id="C_66" type="typeC" route="route_3" depart="506" departLane="0" departSpeed="random"/>
    <vehicle id="B_66" type="typeB" route="route_1" depart="508" departLane="0" departSpeed="random"/>
    <vehicle id="C_67" type="typeC" route="route_3" depart="509" departLane="0" departSpeed="random"/>
    <vehicle id="B_67" type="typeB" route="route_1" depart="510" departLane="0" departSpeed="random"/>
    <vehicle id="B_68" type="typeB" route="route_1" depart="511" departLane="0" departSpeed="random"/>
    <vehicle id="A_77" type="typeA" route="route_0" depart="516" departLane="0" departSpeed="random"/>
    <vehicle id="A_78" type="typeA" route="route_0" depart="520" departLane="0" departSpeed="random"/>
    <vehicle id="B_69" type="typeB" route="route_1" depart="525" departLane="0" departSpeed="random"/>
    <vehicle id="A_79" type="typeA" route="route_0" depart="528" departLane="0" departSpeed="random"/>
    <vehicle id="A_80" type="typeA" route="route_0" depart="530" departLane="0" departSpeed="random"/>
    <vehicle id="B_70" type="typeB" route="route_1" depart="534" departLane="0" departSpeed="random"/>
    <vehicle id="B_71" type="typeB" route="route_1" depart="538" departLane="0" departSpeed="random"/>
    <vehicle id="A_81" type="typeA" route="route_0" depart="539" departLane="0" departSpeed="random"/>
    <vehicle id="A_82" type="typeA" route="route_0" depart="541" departLane="0" departSpeed="random"/>
    <vehicle id="B_72" type="typeB" route="route_1" depart="541" departLane="0" departSpeed="random"/>
    <vehicle id="C_68" type="typeC" route="route_3" depart="548" departLane="0" departSpeed="random"/>
    <vehicle id="B_73" type="typeB" route="route_1" depart="551" departLane="0" departSpeed="random"/>
    <vehicle id="B_74" type="typeB" route="route_1" depart="553" departLane="0" departSpeed="random"/>
    <vehicle id="A_83" type="typeA" route="route_0" depart="555" departLane="0" departSpeed="random"/>
    <vehicle id="A_84" type="typeA" route="route_0" depart="570" departLane="0" departSpeed="random"/>
    <vehicle id="B_75" type="typeB" route="route_1" depart="570" departLane="0" departSpeed="random"/>
    <vehicle id="C_69" type="typeC" route="route_3" depart="571" departLane="0" departSpeed="random"/>
    <vehicle id="C_70" type="typeC" route="route_3" depart="572" departLane="0" departSpeed="random"/>
    <vehicle id="C_71" type="typeC" route="route_3" depart="575" departLane="0" departSpeed="random"/>
    <vehicle id="A_85" type="typeA" route="route_0" depart="577" departLane="0" departSpeed="random"/>
    <vehicle id="C_72" type="typeC" route="route_3" depart="577" departLane="0" departSpeed="random"/>
    <vehicle id="C_73" type="typeC" route="route_3" depart="580" departLane="0" departSpeed="random"/>
    <vehicle id="C_74" type="typeC" route="route_3" depart="581" departLane="0" departSpeed="random"/>
    <vehicle id="C_75" type="typeC" route="route_3" depart="585" departLane="0" departSpeed="random"/>
    <vehicle id="C_76" type="typeC" route="route_3" depart="590" departLane="0" departSpeed="random"/>
    <vehicle id="B_76" type="typeB" route="route_1" depart="595" departLane="0" departSpeed="random"/>
    <vehicle id="A_86" type="typeA" route="route_0" depart="598" departLane="0" departSpeed="random"/>
    <vehicle id="B_77" type="typeB" route="route_1" depart="600" departLane="0" departSpeed="random"/>
    <vehicle id="B_78" type="typeB" route="route_1" depart="602" departLane="0" departSpeed="random"/>
    <vehicle id="A_87" type="typeA" route="route_0" depart="607" departLane="0" departSpeed="random"/>
    <vehicle id="A_88" type="typeA" route="route_0" depart="613" departLane="0" departSpeed="random"/>
    <vehicle id="A_89" type="typeA" route="route_0" depart="615" departLane="0" departSpeed="random"/>
    <vehicle id="B_79" type="typeB" route="route_1" depart="615" departLane="0" departSpeed="random"/>
    <vehicle id="A_90" type="typeA" route="route_0" depart="617" departLane="0" departSpeed="random"/>
    <vehicle id="B_80" type="typeB" route="route_1" depart="617" departLane="0" departSpeed="random"/>
    <vehicle id="A_91" type="typeA" route="route_0" depart="618" departLane="0" departSpeed="random"/>
    <vehicle id="B_81" type="typeB" route="route_1" depart="618" departLane="0" departSpeed="random"/>
    <vehicle id="C_77" type="typeC" route="route_3" depart="620" departLane="0" departSpeed="random"/>
    <vehicle id="A_92" type="typeA" route="route_0" depart="621" departLane="0" departSpeed="random"/>
    <vehicle id="A_93" type="typeA" route="route_0" depart="622" departLane="0" departSpeed="random"/>
    <vehicle id="B_82" type="typeB" route="route_1" depart="622" departLane="0" departSpeed="random"/>
    <vehicle id="C_78" type="typeC" route="route_3" depart="624" departLane="0" departSpeed="random"/>
    <vehicle id="B_83" type="typeB" route="route_1" depart="626" departLane="0" departSpeed="random"/>
    <vehicle id="A_94" type="typeA" route="route_0" depart="627" departLane="0" departSpeed="random"/>
    <vehicle id="B_84" type="typeB" route="route_1" depart="628" departLane="0" departSpeed="random"/>
    <vehicle id="A_95" type="typeA" route="route_0" depart="629" departLane="0" departSpeed="random"/>
    <vehicle id="A_96" type="typeA" route="route_0" depart="636" departLane="0" departSpeed="random"/>
    <vehicle id="B_85" type="typeB" route="route_1" depart="640" departLane="0" departSpeed="random"/>
    <vehicle id="A_97" type="typeA" route="route_0" depart="648" departLane="0" departSpeed="random"/>
    <vehicle id="B_86" type="typeB" route="route_1" depart="654" departLane="0" departSpeed="random"/>
    <vehicle id="C_79" type="typeC" route="route_3" depart="656" departLane="0" departSpeed="random"/>
    <vehicle id="A_98" type="typeA" route="route_0" depart="658" departLane="0" departSpeed="random"/>
    <vehicle id="C_80" type="typeC" route="route_3" depart="659" departLane="0" departSpeed="random"/>
    <vehicle id="B_87" type="typeB" route="route_1" depart="660" departLane="0" departSpeed="random"/>
    <vehicle id="B_88" type="typeB" route="route_1" depart="663" departLane="0" departSpeed="random"/>
    <vehicle id="B_89" type="typeB" route="route_1" depart="667" departLane="0" departSpeed="random"/>
    <vehicle id="A_99" type="typeA" route="route_0" depart="669" departLane="0" departSpeed="random"/>
    <vehicle id="A_100" type="typeA" route="route_0" depart="670" departLane="0" departSpeed="random"/>
    <vehicle id="B_90" type="typeB" route="route_1" depart="673" departLane="0" departSpeed="random"/>
    <vehicle id="C_81" type="typeC" route="route_3" depart="677" departLane="0" departSpeed="random"/>
    <vehicle id="B_91" type="typeB" route="route_1" depart="678" departLane="0" departSpeed="random"/>
    <vehicle id="C_82" type="typeC" route="route_3" depart="678" departLane="0" departSpeed="random"/>
    <vehicle id="B_92" type="typeB" route="route_1" depart="681" departLane="0" departSpeed="random"/>
    <vehicle id="C_83" type="typeC" route="route_3" depart="684" departLane="0" departSpeed="random"/>
    <vehicle id="C_84" type="typeC" route="route_3" depart="685" departLane="0" departSpeed="random"/>
    <vehicle id="C_85" type="typeC" route="route_3" depart="686" departLane="0" departSpeed="random"/>
    <vehicle id="C_86" type="typeC" route="route_3" depart="687" departLane="0" departSpeed="random"/>
    <vehicle id="B_93" type="typeB" route="route_1" depart="689" departLane="0" departSpeed="random"/>
    <vehicle id="C_87" type="typeC" route="route_3" depart="690" departLane="0" departSpeed="random"/>
    <vehicle id="B_94" type="typeB" route="route_1" depart="692" departLane="0" departSpeed="random"/>
    <vehicle id="C_88" type="typeC" route="route_3" depart="698" departLane="0" departSpeed="random"/>
    <vehicle id="B_95" type="typeB" route="route_1" depart="703" departLane="0" departSpeed="random"/>
    <vehicle id="B_96" type="typeB" route="route_1" depart="706" departLane="0" departSpeed="random"/>
    <vehicle id="C_89" type="typeC" route="route_3" depart="706" departLane="0" departSpeed="random"/>
    <vehicle id="C_90" type="typeC" route="route_3" depart="708" departLane="0" departSpeed="random"/>