<routes>
    <vType id="typeA" type="passenger" length="2" accel="2.6" decel="4.5" sigma="0.0" maxSpeed="20" minGap="1" carFollowModel="CACC" tau="1.0" color="yellow"/>
    <vType id="typeB" type="passenger" length="2" accel="2.6" decel="4.5" sigma="0.0" maxSpeed="20" minGap="1" carFollowModel="CACC" tau="1.0" color="blue"/>
    <vType id="typeC" type="passenger" length="2" accel="2.6" decel="4.5" sigma="0.0" maxSpeed="20" minGap="1" carFollowModel="CACC" tau="1.0" color="magenta"/>
    <route edges="A X" color="yellow" id="route_0"/>
    <route edges="B X" color="yellow" id="route_1"/>
    <route edges="B Y" color="yellow" id="route_2"/>
    <route edges="C Y" color="yellow" id="route_3"/>
    <vehicle id="A_1" type="typeA" route="route_0" depart="1" departLane="0" departSpeed="desired"/>
    <vehicle id="A_2" type="typeA" route="route_0" depart="2" departLane="0" departSpeed="desired"/>
    <vehicle id="A_3" type="typeA" route="route_0" depart="3" departLane="0" departSpeed="desired"/>
    <vehicle id="A_4" type="typeA" route="route_0" depart="4" departLane="0" departSpeed="desired"/>
    <vehicle id="A_5" type="typeA" route="route_0" depart="5" departLane="0" departSpeed="desired"/>
    <vehicle id="A_6" type="typeA" route="route_0" depart="6" departLane="0" departSpeed="desired"/>
    <vehicle id="A_7" type="typeA" route="route_0" depart="7" departLane="0" departSpeed="desired"/>
    <vehicle id="A_8" type="typeA" route="route_0" depart="8" departLane="0" departSpeed="desired"/>
    <vehicle id="A_9" type="typeA" route="route_0" depart="9" departLane="0" departSpeed="desired"/>
    <vehicle id="A_10" type="typeA" route="route_0" depart="10" departLane="0" departSpeed="desired"/>
</routes>
