<additional>
   <laneAreaDetector id="dA" lane="E6_0" endPos="6000" length="6000" freq="1" file="output_dA.xml" />  
   <laneAreaDetector id="dB" lane="E7_0" endPos="6000" length="6000" freq="1" file="output_dB.xml" />
   <laneAreaDetector id="dC" lane="E8_0" endPos="6000" length="6000" freq="1" file="output_dC.xml" />
   <e1Detector id="dX" lane="E9_0" pos="0" freq="1.00" file="output_dX.xml"/>
   <e1Detector id="dY" lane="E10_0" pos="0" freq="1.00" file="output_dY.xml"/>
</additional>
