<routes>
        <vType id="typeA" type="passenger" length="2" accel="1.5" decel="2" sigma="0.0" maxSpeed="20" color="yellow"/>
        <vType id="typeB" type="passenger" length="2" accel="1.5" decel="2" sigma="0.0" maxSpeed="20" color="blue"/>
        <vType id="typeC" type="passenger" length="2" accel="1.5" decel="2" sigma="0.0" maxSpeed="20" color="magenta"/>

        <route edges="E6 E9" color="yellow" id="route_0"/>
        <route edges="E7 E9" color="yellow" id="route_1"/>
        <route edges="E7 E10" color="yellow" id="route_2"/>
        <route edges="E8 E10" color="yellow" id="route_3"/>
    <vehicle id="A_1" type="typeA" route="route_0" depart="1" departLane="0" departSpeed="random"/>
    <vehicle id="B_1" type="typeB" route="route_1" depart="1" departLane="0" departSpeed="random"/>
    <vehicle id="C_1" type="typeC" route="route_3" depart="1" departLane="0" departSpeed="random"/>
    <vehicle id="A_2" type="typeA" route="route_0" depart="2" departLane="0" departSpeed="random"/>
    <vehicle id="B_2" type="typeB" route="route_1" depart="2" departLane="0" departSpeed="random"/>
    <vehicle id="C_2" type="typeC" route="route_3" depart="2" departLane="0" departSpeed="random"/>
</routes>
