<?xml version="1.0" encoding="UTF-8"?>

<!-- generated on 2021-07-02 17:17:43 by Eclipse SUMO netedit Version 1.9.2
<configuration xmlns:xsi="http://www.w3.org/2001/XMLSchema-instance" xsi:noNamespaceSchemaLocation="http://sumo.dlr.de/xsd/netconvertConfiguration.xsd">

    <input>
        <sumo-net-file value="/Users/jcp/Desktop/OneDrive%20-%20國立成功大學/Lab/Lane-Merging/SUMO/sumo_data/laneMerging.net.xml"/>
    </input>

    <output>
        <output-file value="/Users/jcp/Desktop/OneDrive%20-%20國立成功大學/Lab/Lane-Merging/SUMO/sumo_data/laneMerging.net.xml"/>
    </output>

    <processing>
        <geometry.min-radius.fix.railways value="false"/>
        <geometry.max-grade.fix value="false"/>
        <offset.disable-normalization value="true"/>
        <lefthand value="false"/>
    </processing>

    <junctions>
        <no-turnarounds value="true"/>
        <junctions.corner-detail value="5"/>
        <junctions.limit-turn-speed value="5.5"/>
        <rectangular-lane-cut value="false"/>
    </junctions>

    <pedestrian>
        <walkingareas value="false"/>
    </pedestrian>

    <report>
        <aggregate-warnings value="5"/>
    </report>

</configuration>
-->

<net version="1.9" junctionCornerDetail="5" limitTurnSpeed="5.50" xmlns:xsi="http://www.w3.org/2001/XMLSchema-instance" xsi:noNamespaceSchemaLocation="http://sumo.dlr.de/xsd/net_file.xsd">

    <location netOffset="0.00,0.00" convBoundary="-3.94,30.61,111.52,71.43" origBoundary="-10000000000.00,-10000000000.00,10000000000.00,10000000000.00" projParameter="!"/>

    <edge id=":gneJ14_0" function="internal">
        <lane id=":gneJ14_0_0" index="0" speed="4.06" length="1.18" width="3.00" shape="15.09,68.76 15.32,68.96 15.57,69.10 15.84,69.19 16.14,69.22"/>
    </edge>
    <edge id=":gneJ15_0" function="internal">
        <lane id=":gneJ15_0_0" index="0" speed="13.89" length="0.10" width="3.00" shape="16.74,49.37 16.81,49.37"/>
    </edge>
    <edge id=":gneJ16_0" function="internal">
        <lane id=":gneJ16_0_0" index="0" speed="4.00" length="1.29" width="3.00" shape="14.66,29.57 14.91,29.36 15.18,29.21 15.49,29.13 15.82,29.11"/>
    </edge>
    <edge id=":gneJ17_0" function="internal">
        <lane id=":gneJ17_0_0" index="0" speed="13.89" length="0.81" width="3.00" shape="54.31,69.92 54.55,69.92 54.71,69.89 54.87,69.84 55.07,69.72"/>
    </edge>
    <edge id=":gneJ18_0" function="internal">
        <lane id=":gneJ18_0_0" index="0" speed="13.89" length="0.12" width="3.00" shape="55.88,50.69 56.00,50.70"/>
    </edge>
    <edge id=":gneJ19_0" function="internal">
        <lane id=":gneJ19_0_0" index="0" speed="13.89" length="0.96" width="3.00" shape="55.77,31.15 56.05,31.17 56.24,31.22 56.42,31.31 56.64,31.49"/>
    </edge>
    <edge id=":gneJ20_0" function="internal">
        <lane id=":gneJ20_0_0" index="0" speed="8.09" length="11.08" width="3.00" shape="77.93,48.88 80.70,50.74 83.32,51.66 85.79,51.64 88.09,50.69"/>
    </edge>
    <edge id=":gneJ20_1" function="internal">
        <lane id=":gneJ20_1_0" index="0" speed="13.89" length="12.76" width="3.00" shape="77.93,48.88 80.56,51.03 82.93,52.86 85.40,54.52 88.36,56.16"/>
    </edge>
    <edge id=":gneJ20_2" function="internal">
        <lane id=":gneJ20_2_0" index="0" speed="13.09" length="12.85" width="3.00" shape="75.75,52.98 79.18,53.24 82.21,53.06 85.09,52.26 88.09,50.69"/>
    </edge>
    <edge id=":gneJ20_3" function="internal">
        <lane id=":gneJ20_3_0" index="0" speed="13.89" length="13.09" width="3.00" shape="75.75,52.98 79.19,53.40 82.25,53.94 85.21,54.79 88.36,56.16"/>
    </edge>
    <edge id=":gneJ20_4" function="internal">
        <lane id=":gneJ20_4_0" index="0" speed="13.89" length="13.32" width="3.00" shape="76.67,57.54 88.09,50.69"/>
    </edge>
    <edge id=":gneJ20_5" function="internal">
        <lane id=":gneJ20_5_0" index="0" speed="9.87" length="12.25" width="3.00" shape="76.67,57.54 79.96,56.01 83.01,55.27 85.81,55.32 88.36,56.16"/>
    </edge>

    <edge id="E0" from="gneJ13" to="gneJ14" priority="-1" length="100.00">
        <lane id="E0_0" index="0" speed="13.89" length="100.00" width="3.00" shape="0.13,53.23 15.09,68.76"/>
    </edge>
    <edge id="E1" from="gneJ13" to="gneJ15" priority="-1" length="100.00">
        <lane id="E1_0" index="0" speed="13.89" length="100.00" width="3.00" shape="1.65,49.59 16.74,49.37"/>
    </edge>
    <edge id="E10" from="gneJ20" to="gneJ22" priority="-1">
        <lane id="E10_0" index="0" speed="13.89" length="26.86" width="3.00" shape="88.09,50.69 110.71,36.20"/>
    </edge>
    <edge id="E2" from="gneJ13" to="gneJ16" priority="-1" length="100.00">
        <lane id="E2_0" index="0" speed="13.89" length="100.00" width="3.00" shape="-1.07,46.01 14.66,29.57"/>
    </edge>
    <edge id="E3" from="gneJ14" to="gneJ17" priority="-1" length="200.00">
        <lane id="E3_0" index="0" speed="13.89" length="200.00" width="3.00" shape="16.14,69.22 54.31,69.92"/>
    </edge>
    <edge id="E4" from="gneJ15" to="gneJ18" priority="-1" length="200.00">
        <lane id="E4_0" index="0" speed="13.89" length="200.00" width="3.00" shape="16.81,49.37 55.88,50.69"/>
    </edge>
    <edge id="E5" from="gneJ16" to="gneJ19" priority="-1" length="200.00">
        <lane id="E5_0" index="0" speed="13.89" length="200.00" width="3.00" shape="15.82,29.11 55.77,31.15"/>
    </edge>
    <edge id="E6" from="gneJ17" to="gneJ20" priority="-1" length="300.00">
        <lane id="E6_0" index="0" speed="13.89" length="300.00" width="3.00" shape="55.07,69.72 76.67,57.54"/>
    </edge>
    <edge id="E7" from="gneJ18" to="gneJ20" priority="-1" length="300.00">
        <lane id="E7_0" index="0" speed="13.89" length="300.00" width="3.00" shape="56.00,50.70 75.75,52.98"/>
    </edge>
    <edge id="E8" from="gneJ19" to="gneJ20" priority="-1" length="300.00">
        <lane id="E8_0" index="0" speed="13.89" length="300.00" width="3.00" shape="56.64,31.49 77.93,48.88"/>
    </edge>
    <edge id="E9" from="gneJ20" to="gneJ21" priority="-1">
        <lane id="E9_0" index="0" speed="13.89" length="25.59" width="3.00" shape="88.36,56.16 111.18,67.76"/>
    </edge>

    <tlLogic id="TL1" type="static" programID="0" offset="0">
        <phase duration="1000" state="GrGGrG"/>
        <phase duration="1000" state="rrrrrr"/>
        <!-- 2: A and BY -->
        <phase duration="1"  state="rrGrrG"/>
        <phase duration="1000" state="rrrrrr"/>
        <!-- 4: A and C -->
        <phase duration="1"  state="GrrrrG"/>
        <phase duration="1000" state="rrrrrr"/>
        <!-- 6: BX and C-->
        <phase duration="1"  state="GrrGrr"/>
        <phase duration="1000" state="rrrrrr"/>
        <!-- 8: only A -->
        <phase duration="1"  state="rrrrrG"/>
        <phase duration="1000" state="rrrrrr"/>
        <!-- 10: only BX -->
        <phase duration="1"  state="rrrGrr"/>
        <phase duration="1000" state="rrrrrr"/>
        <!-- 12: only BY -->
        <phase duration="1"  state="rrGrrr"/>
        <phase duration="1000" state="rrrrrr"/>
        <!-- 14: only C -->
        <phase duration="1"  state="Grrrrr"/>
        <phase duration="1000" state="rrrrrr"/>
        <!-- 16: C and BY -->
        <phase duration="1"  state="GrGrrr"/>
        <phase duration="1000" state="rrrrrr"/>
        <!-- 18: A and BX -->
        <phase duration="1"  state="rrrGrG"/>
        <phase duration="1000" state="rrrrrr"/>
        <!-- 20: BX and BY-->
        <phase duration="1"  state="rrGGrr"/>
        <phase duration="1000" state="rrrrrr"/>
    </tlLogic>

    <junction id="gneJ13" type="dead_end" x="-3.94" y="51.17" incLanes="" intLanes="" shape="-0.95,54.27 1.21,52.19 0.80,51.59 0.80,51.38 0.95,51.22 1.24,51.13 1.67,51.09 1.62,48.09 0.27,47.99 -0.11,47.85 -0.27,47.64 -0.23,47.37 0.01,47.04 -2.16,44.97 -3.74,47.80 -3.79,49.31 -3.34,50.90 -2.39,52.55"/>
    <junction id="gneJ14" type="priority" x="14.87" y="70.70" incLanes="E0_0" intLanes=":gneJ14_0_0" shape="16.11,70.72 16.17,67.72 14.01,69.80 14.62,70.30 14.97,70.48 15.33,70.61 15.71,70.69">
        <request index="0" response="0" foes="0" cont="0"/>
    </junction>
    <junction id="gneJ15" type="priority" x="16.76" y="50.87" incLanes="E1_0" intLanes=":gneJ15_0_0" shape="16.82,50.87 16.92,47.87 16.66,47.87 16.70,50.87">
        <request index="0" response="0" foes="0" cont="0"/>
    </junction>
    <junction id="gneJ16" type="priority" x="15.74" y="30.61" incLanes="E2_0" intLanes=":gneJ16_0_0" shape="15.74,30.61 15.89,27.61 15.03,27.69 14.63,27.81 14.25,27.99 13.90,28.23 13.57,28.54">
        <request index="0" response="0" foes="0" cont="0"/>
    </junction>
    <junction id="gneJ17" type="priority" x="55.10" y="71.43" incLanes="E3_0" intLanes=":gneJ17_0_0" shape="55.81,71.03 54.34,68.42 54.28,71.42 54.88,71.41 55.09,71.37 55.29,71.30 55.51,71.19">
        <request index="0" response="0" foes="0" cont="0"/>
    </junction>
    <junction id="gneJ18" type="priority" x="55.83" y="52.19" incLanes="E4_0" intLanes=":gneJ18_0_0" shape="55.83,52.19 56.17,49.21 55.93,49.19">
        <request index="0" response="0" foes="0" cont="0"/>
    </junction>
    <junction id="gneJ19" type="priority" x="55.69" y="32.65" incLanes="E5_0" intLanes=":gneJ19_0_0" shape="55.69,32.65 57.59,30.33 57.02,29.90 56.79,29.79 56.55,29.72 56.25,29.68 55.84,29.65">
        <request index="0" response="0" foes="0" cont="0"/>
    </junction>
    <junction id="gneJ20" type="traffic_light" x="83.53" y="55.39" incLanes="E8_0 E7_0 E6_0" intLanes=":gneJ20_0_0 :gneJ20_1_0 :gneJ20_2_0 :gneJ20_3_0 :gneJ20_4_0 :gneJ20_5_0" shape="87.68,57.50 89.04,54.83 87.88,53.92 87.72,53.45 87.83,52.96 88.23,52.46 88.90,51.95 87.28,49.42 84.78,50.24 83.41,50.13 81.97,49.67 80.46,48.87 78.88,47.71 76.98,50.04 75.93,51.49 75.58,54.47 76.90,54.81 77.11,55.08 77.02,55.40 76.63,55.78 75.94,56.23 77.41,58.84 79.40,57.85 81.27,57.16 83.04,56.78 84.70,56.71 86.25,56.95">
        <request index="0" response="000000" foes="010100" cont="0"/>
        <request index="1" response="000000" foes="111100" cont="0"/>
        <request index="2" response="010011" foes="010011" cont="0"/>
        <request index="3" response="110010" foes="110010" cont="0"/>
        <request index="4" response="000011" foes="001111" cont="0"/>
        <request index="5" response="000010" foes="001010" cont="0"/>
    </junction>
    <junction id="gneJ21" type="dead_end" x="110.50" y="69.10" incLanes="E9_0" intLanes="" shape="111.86,66.43 110.50,69.10"/>
    <junction id="gneJ22" type="dead_end" x="111.52" y="37.46" incLanes="E10_0" intLanes="" shape="109.90,34.93 111.52,37.46"/>

    <connection from="E0" to="E3" fromLane="0" toLane="0" via=":gneJ14_0_0" dir="r" state="M"/>
    <connection from="E1" to="E4" fromLane="0" toLane="0" via=":gneJ15_0_0" dir="s" state="M"/>
    <connection from="E2" to="E5" fromLane="0" toLane="0" via=":gneJ16_0_0" dir="l" state="M"/>
    <connection from="E3" to="E6" fromLane="0" toLane="0" via=":gneJ17_0_0" dir="s" state="M"/>
    <connection from="E4" to="E7" fromLane="0" toLane="0" via=":gneJ18_0_0" dir="s" state="M"/>
    <connection from="E5" to="E8" fromLane="0" toLane="0" via=":gneJ19_0_0" dir="s" state="M"/>
    <connection from="E6" to="E10" fromLane="0" toLane="0" via=":gneJ20_4_0" tl="TL1" linkIndex="4" dir="s" state="o"/>
    <connection from="E6" to="E9" fromLane="0" toLane="0" via=":gneJ20_5_0" tl="TL1" linkIndex="5" dir="l" state="o"/>
    <connection from="E7" to="E10" fromLane="0" toLane="0" via=":gneJ20_2_0" tl="TL1" linkIndex="2" dir="R" state="o"/>
    <connection from="E7" to="E9" fromLane="0" toLane="0" via=":gneJ20_3_0" tl="TL1" linkIndex="3" dir="s" state="o"/>
    <connection from="E8" to="E10" fromLane="0" toLane="0" via=":gneJ20_0_0" tl="TL1" linkIndex="0" dir="r" state="O"/>
    <connection from="E8" to="E9" fromLane="0" toLane="0" via=":gneJ20_1_0" tl="TL1" linkIndex="1" dir="s" state="O"/>

    <connection from=":gneJ14_0" to="E3" fromLane="0" toLane="0" dir="r" state="M"/>
    <connection from=":gneJ15_0" to="E4" fromLane="0" toLane="0" dir="s" state="M"/>
    <connection from=":gneJ16_0" to="E5" fromLane="0" toLane="0" dir="l" state="M"/>
    <connection from=":gneJ17_0" to="E6" fromLane="0" toLane="0" dir="s" state="M"/>
    <connection from=":gneJ18_0" to="E7" fromLane="0" toLane="0" dir="s" state="M"/>
    <connection from=":gneJ19_0" to="E8" fromLane="0" toLane="0" dir="s" state="M"/>
    <connection from=":gneJ20_0" to="E10" fromLane="0" toLane="0" dir="r" state="M"/>
    <connection from=":gneJ20_1" to="E9" fromLane="0" toLane="0" dir="s" state="M"/>
    <connection from=":gneJ20_2" to="E10" fromLane="0" toLane="0" dir="R" state="M"/>
    <connection from=":gneJ20_3" to="E9" fromLane="0" toLane="0" dir="s" state="M"/>
    <connection from=":gneJ20_4" to="E10" fromLane="0" toLane="0" dir="s" state="M"/>
    <connection from=":gneJ20_5" to="E9" fromLane="0" toLane="0" dir="l" state="M"/>

</net>
