<configuration>
    <input>
       <net-file value="laneMerging4.net.xml"/>
       <route-files value="laneMerging.rou.xml"/>
       <additional-files value="laneMerging4.add.xml"/>
       <gui-settings-file value="laneMerging.view.xml"/>
    </input>
</configuration>
