<?xml version="1.0" encoding="UTF-8"?>

<!-- generated on 2021-07-06 00:25:04 by Eclipse SUMO netedit Version 1.9.2
<configuration xmlns:xsi="http://www.w3.org/2001/XMLSchema-instance" xsi:noNamespaceSchemaLocation="http://sumo.dlr.de/xsd/netconvertConfiguration.xsd">

    <input>
        <sumo-net-file value="/Users/jcp/Desktop/OneDrive%20-%20國立成功大學/Lab/Lane-Merging/SUMO/sumo_data/laneMerging.net.xml"/>
    </input>

    <output>
        <output-file value="/Users/jcp/Desktop/OneDrive%20-%20國立成功大學/Lab/Lane-Merging/SUMO/sumo_data/laneMerging.net.xml"/>
    </output>

    <processing>
        <geometry.min-radius.fix.railways value="false"/>
        <geometry.max-grade.fix value="false"/>
        <offset.disable-normalization value="true"/>
        <lefthand value="false"/>
    </processing>

    <junctions>
        <no-turnarounds value="true"/>
        <junctions.corner-detail value="5"/>
        <junctions.limit-turn-speed value="5.5"/>
        <rectangular-lane-cut value="false"/>
    </junctions>

    <pedestrian>
        <walkingareas value="false"/>
    </pedestrian>

    <netedit>
        <additional-files value="/Users/jcp/Desktop/OneDrive%20-%20國立成功大學/Lab/Lane-Merging/SUMO/sumo_data/laneMerging2.add.xml"/>
    </netedit>

    <report>
        <aggregate-warnings value="5"/>
    </report>

</configuration>
-->

<additional xmlns:xsi="http://www.w3.org/2001/XMLSchema-instance" xsi:noNamespaceSchemaLocation="http://sumo.dlr.de/xsd/additional_file.xsd">
    <e1Detector id="e1Detector_E10_0_1" lane="E10_0" pos="0.07" freq="400.00" file="e1Detector_E10_0_1.xml"/>
    <e1Detector id="e1Detector_E9_0_0" lane="E9_0" pos="0.07" freq="400.00" file="e1Detector_E9_0_0.xml"/>
</additional>
