<?xml version="1.0" encoding="UTF-8"?>

<!-- generated on 一  5/ 3 21:45:45 2021 by Eclipse SUMO netedit Version 1.8.0
<configuration xmlns:xsi="http://www.w3.org/2001/XMLSchema-instance" xsi:noNamespaceSchemaLocation="http://sumo.dlr.de/xsd/netconvertConfiguration.xsd">

    <output>
        <output-file value="/Users/huangshaofu/Desktop/cwlab/Lane-Merging/three_to_two/newtest.net.xml"/>
    </output>

    <processing>
        <offset.disable-normalization value="true"/>
    </processing>

    <junctions>
        <no-turnarounds value="true"/>
    </junctions>

    <netedit>
        <route-files value="/Users/huangshaofu/Desktop/cwlab/Lane-Merging/three_to_two/newtest.rou.xml"/>
    </netedit>

    <report>
        <aggregate-warnings value="5"/>
    </report>

</configuration>
-->

<routes xmlns:xsi="http://www.w3.org/2001/XMLSchema-instance" xsi:noNamespaceSchemaLocation="http://sumo.dlr.de/xsd/routes_file.xsd">
    <route edges="gneE16 gneE19 gneE22 gneE25" color="yellow" id="route_0"/>
    <route edges="gneE17 gneE20 gneE23 gneE25" color="yellow" id="route_1"/>
    <route edges="gneE17 gneE20 gneE23 gneE26" color="yellow" id="route_2"/>
    <route edges="gneE18 gneE21 gneE24 gneE26" color="yellow" id="route_3"/>
</routes>
