<?xml version="1.0" encoding="UTF-8"?>

<!-- generated on 二  4/27 15:13:15 2021 by Eclipse SUMO netedit Version 1.8.0
<configuration xmlns:xsi="http://www.w3.org/2001/XMLSchema-instance" xsi:noNamespaceSchemaLocation="http://sumo.dlr.de/xsd/netconvertConfiguration.xsd">

    <output>
        <output-file value="/Users/huangshaofu/Desktop/cwlab/test.net.xml"/>
    </output>

    <processing>
        <offset.disable-normalization value="true"/>
    </processing>

    <junctions>
        <no-turnarounds value="true"/>
    </junctions>

    <netedit>
        <route-files value="/Users/huangshaofu/Desktop/cwlab/test1.rou.xml"/>
    </netedit>

    <report>
        <aggregate-warnings value="5"/>
    </report>

</configuration>
-->

<routes xmlns:xsi="http://www.w3.org/2001/XMLSchema-instance" xsi:noNamespaceSchemaLocation="http://sumo.dlr.de/xsd/routes_file.xsd">
    <route edges="gneE0 gneE1 gneE6 gneE9 gneE11" color="yellow" id="route_0"/>
    <route edges="gneE0 gneE1 gneE6 gneE10" color="yellow" id="route_1"/>
    <vehicle id="vehicle_0" depart="0.00" route="route_0"/>
</routes>
