<?xml version="1.0" encoding="UTF-8"?>

<!-- generated on 二  4/27 15:17:05 2021 by Eclipse SUMO netedit Version 1.8.0
<configuration xmlns:xsi="http://www.w3.org/2001/XMLSchema-instance" xsi:noNamespaceSchemaLocation="http://sumo.dlr.de/xsd/netconvertConfiguration.xsd">

    <output>
        <output-file value="/Users/huangshaofu/Desktop/cwlab/test.net.xml"/>
    </output>

    <processing>
        <offset.disable-normalization value="true"/>
    </processing>

    <junctions>
        <no-turnarounds value="true"/>
    </junctions>

    <netedit>
        <route-files value="/Users/huangshaofu/Desktop/cwlab/test1.rou.xml"/>
    </netedit>

    <report>
        <aggregate-warnings value="5"/>
    </report>

</configuration>
-->

<net version="1.6" junctionCornerDetail="5" limitTurnSpeed="5.50" xmlns:xsi="http://www.w3.org/2001/XMLSchema-instance" xsi:noNamespaceSchemaLocation="http://sumo.dlr.de/xsd/net_file.xsd">

    <location netOffset="0.00,0.00" convBoundary="-7.87,48.54,129.15,85.57" origBoundary="10000000000.00,10000000000.00,-10000000000.00,-10000000000.00" projParameter="!"/>

    <edge id=":gneJ1_0" function="internal">
        <lane id=":gneJ1_0_0" index="0" speed="4.18" length="1.28" shape="7.08,82.91 7.32,83.12 7.60,83.27 7.89,83.37 8.22,83.40"/>
    </edge>
    <edge id=":gneJ2_0" function="internal">
        <lane id=":gneJ2_0_0" index="0" speed="13.89" length="0.67" shape="56.34,83.96 56.54,83.96 56.67,83.95 56.81,83.91 56.99,83.83"/>
    </edge>
    <edge id=":gneJ3_0" function="internal">
        <lane id=":gneJ3_0_0" index="0" speed="13.89" length="0.10" shape="10.90,67.50 10.97,67.50"/>
    </edge>
    <edge id=":gneJ4_0" function="internal">
        <lane id=":gneJ4_0_0" index="0" speed="4.01" length="1.71" shape="4.19,47.68 4.47,47.34 4.81,47.10 5.20,46.97 5.64,46.95"/>
    </edge>
    <edge id=":gneJ5_0" function="internal">
        <lane id=":gneJ5_0_0" index="0" speed="13.89" length="0.30" shape="58.33,68.51 58.63,68.52"/>
    </edge>
    <edge id=":gneJ6_0" function="internal">
        <lane id=":gneJ6_0_0" index="0" speed="13.89" length="0.73" shape="59.28,50.30 59.50,50.31 59.65,50.34 59.78,50.40 59.97,50.50"/>
    </edge>
    <edge id=":gneJ7_0" function="internal">
        <lane id=":gneJ7_0_0" index="0" speed="8.39" length="11.89" shape="84.62,64.46 88.05,66.05 91.04,66.69 93.60,66.38 95.73,65.13"/>
    </edge>
    <edge id=":gneJ7_1" function="internal">
        <lane id=":gneJ7_1_0" index="0" speed="13.89" length="13.57" shape="84.62,64.46 96.50,71.00"/>
    </edge>
    <edge id=":gneJ7_2" function="internal">
        <lane id=":gneJ7_2_0" index="0" speed="13.24" length="15.17" shape="81.35,68.81 85.19,68.74 89.03,68.26 92.62,67.13 95.73,65.13"/>
    </edge>
    <edge id=":gneJ7_3" function="internal">
        <lane id=":gneJ7_3_0" index="0" speed="13.89" length="15.44" shape="81.35,68.81 85.20,68.86 89.13,69.08 92.96,69.71 96.50,71.00"/>
    </edge>
    <edge id=":gneJ7_4" function="internal">
        <lane id=":gneJ7_4_0" index="0" speed="13.89" length="15.75" shape="82.19,73.06 85.73,71.46 89.30,69.62 92.70,67.51 95.73,65.13"/>
    </edge>
    <edge id=":gneJ7_5" function="internal">
        <lane id=":gneJ7_5_0" index="0" speed="11.69" length="14.82" shape="82.19,73.06 86.84,71.33 90.77,70.41 93.99,70.30 96.50,71.00"/>
    </edge>
    <edge id=":gneJ8_0" function="internal">
        <lane id=":gneJ8_0_0" index="0" speed="4.11" length="1.42" shape="107.68,76.74 108.02,76.88 108.37,76.93 108.71,76.90 109.06,76.78"/>
    </edge>

    <edge id="gneE0" from="gneJ0" to="gneJ1" priority="-1">
        <lane id="gneE0_0" index="0" speed="13.89" length="15.58" shape="-3.67,71.62 7.08,82.91"/>
    </edge>
    <edge id="gneE1" from="gneJ1" to="gneJ2" priority="-1">
        <lane id="gneE1_0" index="0" speed="13.89" length="48.13" shape="8.22,83.40 56.34,83.96"/>
    </edge>
    <edge id="gneE10" from="gneJ7" to="gneJ9" priority="-1">
        <lane id="gneE10_0" index="0" speed="13.89" length="17.11" shape="95.73,65.13 108.40,53.63"/>
    </edge>
    <edge id="gneE11" from="gneJ8" to="gneJ10" priority="-1">
        <lane id="gneE11_0" index="0" speed="13.89" length="21.25" shape="109.06,76.78 128.51,68.22"/>
    </edge>
    <edge id="gneE2" from="gneJ0" to="gneJ3" priority="-1">
        <lane id="gneE2_0" index="0" speed="13.89" length="12.98" shape="-2.09,67.80 10.90,67.50"/>
    </edge>
    <edge id="gneE3" from="gneJ0" to="gneJ4" priority="-1">
        <lane id="gneE3_0" index="0" speed="13.89" length="19.55" shape="-6.34,64.16 4.19,47.68"/>
    </edge>
    <edge id="gneE4" from="gneJ3" to="gneJ5" priority="-1">
        <lane id="gneE4_0" index="0" speed="13.89" length="47.38" shape="10.97,67.50 58.33,68.51"/>
    </edge>
    <edge id="gneE5" from="gneJ4" to="gneJ6" priority="-1">
        <lane id="gneE5_0" index="0" speed="13.89" length="53.75" shape="5.64,46.95 59.28,50.30"/>
    </edge>
    <edge id="gneE6" from="gneJ2" to="gneJ7" priority="-1">
        <lane id="gneE6_0" index="0" speed="13.89" length="27.41" shape="56.99,83.83 82.19,73.06"/>
    </edge>
    <edge id="gneE7" from="gneJ5" to="gneJ7" priority="-1">
        <lane id="gneE7_0" index="0" speed="13.89" length="22.73" shape="58.63,68.52 81.35,68.81"/>
    </edge>
    <edge id="gneE8" from="gneJ6" to="gneJ7" priority="-1">
        <lane id="gneE8_0" index="0" speed="13.89" length="28.32" shape="59.97,50.50 84.62,64.46"/>
    </edge>
    <edge id="gneE9" from="gneJ7" to="gneJ8" priority="-1">
        <lane id="gneE9_0" index="0" speed="13.89" length="12.57" shape="96.50,71.00 107.68,76.74"/>
    </edge>

    <tlLogic id="gneJ7" type="static" programID="0" offset="0">
        <phase duration="27" state="GGrrrr"/>
        <phase duration="30" state="rrrrrG"/>
        <phase duration="3"  state="rrrryy"/>
        <phase duration="27" state="rrGGrr"/>
        <phase duration="3"  state="rryyrr"/>
    </tlLogic>

    <junction id="gneJ0" type="dead_end" x="-7.87" y="69.53" incLanes="" intLanes="" shape="-4.83,72.73 -2.51,70.52 -2.92,69.91 -2.91,69.70 -2.77,69.54 -2.48,69.44 -2.05,69.40 -2.12,66.20 -4.07,66.11 -4.68,65.95 -5.03,65.71 -5.13,65.40 -4.99,65.02 -7.68,63.30 -8.46,66.06 -8.20,67.58 -7.51,69.20 -6.39,70.91"/>
    <junction id="gneJ1" type="priority" x="6.85" y="84.99" incLanes="gneE0_0" intLanes=":gneJ1_0_0" shape="8.20,85.00 8.24,81.80 5.92,84.01 6.59,84.55 6.96,84.75 7.35,84.88 7.76,84.97">
        <request index="0" response="0" foes="0" cont="0"/>
    </junction>
    <junction id="gneJ10" type="dead_end" x="129.15" y="69.68" incLanes="gneE11_0" intLanes="" shape="127.86,66.75 129.15,69.68"/>
    <junction id="gneJ2" type="priority" x="57.00" y="85.57" incLanes="gneE1_0" intLanes=":gneJ2_0_0" shape="57.62,85.30 56.36,82.36 56.32,85.56 56.82,85.56 56.99,85.53 57.16,85.49 57.36,85.41">
        <request index="0" response="0" foes="0" cont="0"/>
    </junction>
    <junction id="gneJ3" type="priority" x="10.93" y="69.10" incLanes="gneE2_0" intLanes=":gneJ3_0_0" shape="11.00,69.10 11.07,65.90 10.79,65.90 10.87,69.10">
        <request index="0" response="0" foes="0" cont="0"/>
    </junction>
    <junction id="gneJ4" type="priority" x="5.54" y="48.54" incLanes="gneE3_0" intLanes=":gneJ4_0_0" shape="5.54,48.54 5.74,45.35 4.58,45.46 4.07,45.66 3.62,45.95 3.21,46.34 2.84,46.82">
        <request index="0" response="0" foes="0" cont="0"/>
    </junction>
    <junction id="gneJ5" type="priority" x="58.45" y="70.12" incLanes="gneE4_0" intLanes=":gneJ5_0_0" shape="58.61,70.12 58.65,66.92 58.37,66.91 58.30,70.11">
        <request index="0" response="0" foes="0" cont="0"/>
    </junction>
    <junction id="gneJ6" type="priority" x="59.18" y="51.90" incLanes="gneE5_0" intLanes=":gneJ6_0_0" shape="59.18,51.90 60.76,49.11 60.29,48.86 60.11,48.79 59.92,48.75 59.69,48.72 59.38,48.70">
        <request index="0" response="0" foes="0" cont="0"/>
    </junction>
    <junction id="gneJ7" type="traffic_light" x="92.13" y="70.55" incLanes="gneE8_0 gneE7_0 gneE6_0" intLanes=":gneJ7_0_0 :gneJ7_1_0 :gneJ7_2_0 :gneJ7_3_0 :gneJ7_4_0 :gneJ7_5_0" shape="95.77,72.42 97.23,69.58 96.04,68.63 95.84,68.10 95.90,67.54 96.22,66.94 96.80,66.31 94.65,63.94 92.31,65.04 90.86,65.07 89.23,64.75 87.41,64.08 85.40,63.07 83.83,65.85 84.67,66.64 84.47,66.91 83.86,67.09 82.82,67.19 81.37,67.21 81.33,70.41 81.57,71.59 82.82,74.53 85.77,73.37 88.40,72.53 90.71,72.02 92.71,71.83 94.40,71.96">
        <request index="0" response="000000" foes="010100" cont="0"/>
        <request index="1" response="000000" foes="111100" cont="0"/>
        <request index="2" response="010011" foes="010011" cont="0"/>
        <request index="3" response="110010" foes="110010" cont="0"/>
        <request index="4" response="000011" foes="001111" cont="0"/>
        <request index="5" response="000010" foes="001010" cont="0"/>
    </junction>
    <junction id="gneJ8" type="priority" x="108.31" y="78.86" incLanes="gneE9_0" intLanes=":gneJ8_0_0" shape="109.70,78.25 108.41,75.32 106.95,78.17 107.86,78.49 108.32,78.54 108.78,78.51 109.24,78.42">
        <request index="0" response="0" foes="0" cont="0"/>
    </junction>
    <junction id="gneJ9" type="dead_end" x="109.48" y="54.81" incLanes="gneE10_0" intLanes="" shape="107.32,52.44 109.48,54.81"/>

    <connection from="gneE0" to="gneE1" fromLane="0" toLane="0" via=":gneJ1_0_0" dir="r" state="M"/>
    <connection from="gneE1" to="gneE6" fromLane="0" toLane="0" via=":gneJ2_0_0" dir="s" state="M"/>
    <connection from="gneE2" to="gneE4" fromLane="0" toLane="0" via=":gneJ3_0_0" dir="s" state="M"/>
    <connection from="gneE3" to="gneE5" fromLane="0" toLane="0" via=":gneJ4_0_0" dir="l" state="M"/>
    <connection from="gneE4" to="gneE7" fromLane="0" toLane="0" via=":gneJ5_0_0" dir="s" state="M"/>
    <connection from="gneE5" to="gneE8" fromLane="0" toLane="0" via=":gneJ6_0_0" dir="s" state="M"/>
    <connection from="gneE6" to="gneE10" fromLane="0" toLane="0" via=":gneJ7_4_0" tl="gneJ7" linkIndex="4" dir="s" state="o"/>
    <connection from="gneE6" to="gneE9" fromLane="0" toLane="0" via=":gneJ7_5_0" tl="gneJ7" linkIndex="5" dir="l" state="o"/>
    <connection from="gneE7" to="gneE10" fromLane="0" toLane="0" via=":gneJ7_2_0" tl="gneJ7" linkIndex="2" dir="R" state="o"/>
    <connection from="gneE7" to="gneE9" fromLane="0" toLane="0" via=":gneJ7_3_0" tl="gneJ7" linkIndex="3" dir="s" state="o"/>
    <connection from="gneE8" to="gneE10" fromLane="0" toLane="0" via=":gneJ7_0_0" tl="gneJ7" linkIndex="0" dir="r" state="O"/>
    <connection from="gneE8" to="gneE9" fromLane="0" toLane="0" via=":gneJ7_1_0" tl="gneJ7" linkIndex="1" dir="s" state="O"/>
    <connection from="gneE9" to="gneE11" fromLane="0" toLane="0" via=":gneJ8_0_0" dir="r" state="M"/>

    <connection from=":gneJ1_0" to="gneE1" fromLane="0" toLane="0" dir="r" state="M"/>
    <connection from=":gneJ2_0" to="gneE6" fromLane="0" toLane="0" dir="s" state="M"/>
    <connection from=":gneJ3_0" to="gneE4" fromLane="0" toLane="0" dir="s" state="M"/>
    <connection from=":gneJ4_0" to="gneE5" fromLane="0" toLane="0" dir="l" state="M"/>
    <connection from=":gneJ5_0" to="gneE7" fromLane="0" toLane="0" dir="s" state="M"/>
    <connection from=":gneJ6_0" to="gneE8" fromLane="0" toLane="0" dir="s" state="M"/>
    <connection from=":gneJ7_0" to="gneE10" fromLane="0" toLane="0" dir="r" state="M"/>
    <connection from=":gneJ7_1" to="gneE9" fromLane="0" toLane="0" dir="s" state="M"/>
    <connection from=":gneJ7_2" to="gneE10" fromLane="0" toLane="0" dir="R" state="M"/>
    <connection from=":gneJ7_3" to="gneE9" fromLane="0" toLane="0" dir="s" state="M"/>
    <connection from=":gneJ7_4" to="gneE10" fromLane="0" toLane="0" dir="s" state="M"/>
    <connection from=":gneJ7_5" to="gneE9" fromLane="0" toLane="0" dir="l" state="M"/>
    <connection from=":gneJ8_0" to="gneE11" fromLane="0" toLane="0" dir="r" state="M"/>

</net>
