<routes>
        <vType id="typeA" type="passenger" length="5" accel="1.5" decel="2" sigma="0.0" maxSpeed="20" color="yellow"/>
        <vType id="typeB" type="passenger" length="5" accel="1.5" decel="2" sigma="0.0" maxSpeed="20" color="blue"/>

        <route id="right" edges="E1 E2" />
    <vehicle id="B_1" type="typeB" route="right" depart="0" departLane="0" departSpeed="random"/>
    <vehicle id="B_2" type="typeB" route="right" depart="2" departLane="0" departSpeed="random"/>
    <vehicle id="A_1" type="typeA" route="right" depart="5" departLane="1" departSpeed="random"/>
    <vehicle id="B_3" type="typeB" route="right" depart="10" departLane="0" departSpeed="random"/>
    <vehicle id="A_2" type="typeA" route="right" depart="13" departLane="1" departSpeed="random"/>
    <vehicle id="A_3" type="typeA" route="right" depart="14" departLane="1" departSpeed="random"/>
    <vehicle id="A_4" type="typeA" route="right" depart="18" departLane="1" departSpeed="random"/>
    <vehicle id="B_4" type="typeB" route="right" depart="20" departLane="0" departSpeed="random"/>
    <vehicle id="A_5" type="typeA" route="right" depart="21" departLane="1" departSpeed="random"/>
    <vehicle id="B_5" type="typeB" route="right" depart="24" departLane="0" departSpeed="random"/>
    <vehicle id="A_6" type="typeA" route="right" depart="32" departLane="1" departSpeed="random"/>
    <vehicle id="A_7" type="typeA" route="right" depart="36" departLane="1" departSpeed="random"/>
    <vehicle id="B_6" type="typeB" route="right" depart="37" departLane="0" departSpeed="random"/>
    <vehicle id="B_7" type="typeB" route="right" depart="40" departLane="0" departSpeed="random"/>
    <vehicle id="B_8" type="typeB" route="right" depart="43" departLane="0" departSpeed="random"/>
    <vehicle id="B_9" type="typeB" route="right" depart="44" departLane="0" departSpeed="random"/>
    <vehicle id="B_10" type="typeB" route="right" depart="52" departLane="0" departSpeed="random"/>
    <vehicle id="B_11" type="typeB" route="right" depart="53" departLane="0" departSpeed="random"/>
    <vehicle id="A_8" type="typeA" route="right" depart="55" departLane="1" departSpeed="random"/>
    <vehicle id="B_12" type="typeB" route="right" depart="55" departLane="0" departSpeed="random"/>
    <vehicle id="B_13" type="typeB" route="right" depart="56" departLane="0" departSpeed="random"/>
    <vehicle id="A_9" type="typeA" route="right" depart="59" departLane="1" departSpeed="random"/>
    <vehicle id="A_10" type="typeA" route="right" depart="60" departLane="1" departSpeed="random"/>
    <vehicle id="A_11" type="typeA" route="right" depart="64" departLane="1" departSpeed="random"/>
    <vehicle id="B_14" type="typeB" route="right" depart="68" departLane="0" departSpeed="random"/>
    <vehicle id="A_12" type="typeA" route="right" depart="70" departLane="1" departSpeed="random"/>
    <vehicle id="B_15" type="typeB" route="right" depart="73" departLane="0" departSpeed="random"/>
    <vehicle id="A_13" type="typeA" route="right" depart="86" departLane="1" departSpeed="random"/>
    <vehicle id="B_16" type="typeB" route="right" depart="88" departLane="0" departSpeed="random"/>
    <vehicle id="A_14" type="typeA" route="right" depart="94" departLane="1" departSpeed="random"/>
    <vehicle id="A_15" type="typeA" route="right" depart="95" departLane="1" departSpeed="random"/>
    <vehicle id="B_17" type="typeB" route="right" depart="98" departLane="0" departSpeed="random"/>
    <vehicle id="A_16" type="typeA" route="right" depart="99" departLane="1" departSpeed="random"/>
    <vehicle id="A_17" type="typeA" route="right" depart="113" departLane="1" departSpeed="random"/>
    <vehicle id="B_18" type="typeB" route="right" depart="116" departLane="0" departSpeed="random"/>
    <vehicle id="A_18" type="typeA" route="right" depart="117" departLane="1" departSpeed="random"/>
    <vehicle id="B_19" type="typeB" route="right" depart="118" departLane="0" departSpeed="random"/>
    <vehicle id="A_19" type="typeA" route="right" depart="121" departLane="1" departSpeed="random"/>
    <vehicle id="A_20" type="typeA" route="right" depart="128" departLane="1" departSpeed="random"/>
    <vehicle id="A_21" type="typeA" route="right" depart="135" departLane="1" departSpeed="random"/>
    <vehicle id="A_22" type="typeA" route="right" depart="139" departLane="1" departSpeed="random"/>
    <vehicle id="B_20" type="typeB" route="right" depart="139" departLane="0" departSpeed="random"/>
    <vehicle id="A_23" type="typeA" route="right" depart="142" departLane="1" departSpeed="random"/>
    <vehicle id="B_21" type="typeB" route="right" depart="146" departLane="0" departSpeed="random"/>
    <vehicle id="A_24" type="typeA" route="right" depart="147" departLane="1" departSpeed="random"/>
    <vehicle id="B_22" type="typeB" route="right" depart="147" departLane="0" departSpeed="random"/>
    <vehicle id="A_25" type="typeA" route="right" depart="152" departLane="1" departSpeed="random"/>
    <vehicle id="A_26" type="typeA" route="right" depart="153" departLane="1" departSpeed="random"/>
    <vehicle id="A_27" type="typeA" route="right" depart="157" departLane="1" departSpeed="random"/>
    <vehicle id="B_23" type="typeB" route="right" depart="159" departLane="0" departSpeed="random"/>
    <vehicle id="B_24" type="typeB" route="right" depart="174" departLane="0" departSpeed="random"/>
    <vehicle id="A_28" type="typeA" route="right" depart="176" departLane="1" departSpeed="random"/>
    <vehicle id="B_25" type="typeB" route="right" depart="186" departLane="0" departSpeed="random"/>
    <vehicle id="B_26" type="typeB" route="right" depart="187" departLane="0" departSpeed="random"/>
    <vehicle id="A_29" type="typeA" route="right" depart="195" departLane="1" departSpeed="random"/>
    <vehicle id="A_30" type="typeA" route="right" depart="201" departLane="1" departSpeed="random"/>
    <vehicle id="A_31" type="typeA" route="right" depart="202" departLane="1" departSpeed="random"/>
    <vehicle id="B_27" type="typeB" route="right" depart="205" departLane="0" departSpeed="random"/>
    <vehicle id="A_32" type="typeA" route="right" depart="215" departLane="1" departSpeed="random"/>
    <vehicle id="A_33" type="typeA" route="right" depart="221" departLane="1" departSpeed="random"/>
    <vehicle id="A_34" type="typeA" route="right" depart="222" departLane="1" departSpeed="random"/>
    <vehicle id="B_28" type="typeB" route="right" depart="223" departLane="0" departSpeed="random"/>
    <vehicle id="B_29" type="typeB" route="right" depart="224" departLane="0" departSpeed="random"/>
    <vehicle id="A_35" type="typeA" route="right" depart="228" departLane="1" departSpeed="random"/>
    <vehicle id="B_30" type="typeB" route="right" depart="236" departLane="0" departSpeed="random"/>
    <vehicle id="B_31" type="typeB" route="right" depart="242" departLane="0" departSpeed="random"/>
    <vehicle id="B_32" type="typeB" route="right" depart="243" departLane="0" departSpeed="random"/>
    <vehicle id="B_33" type="typeB" route="right" depart="249" departLane="0" departSpeed="random"/>
    <vehicle id="A_36" type="typeA" route="right" depart="250" departLane="1" departSpeed="random"/>
    <vehicle id="B_34" type="typeB" route="right" depart="251" departLane="0" departSpeed="random"/>
    <vehicle id="A_37" type="typeA" route="right" depart="257" departLane="1" departSpeed="random"/>
    <vehicle id="B_35" type="typeB" route="right" depart="257" departLane="0" departSpeed="random"/>
    <vehicle id="B_36" type="typeB" route="right" depart="265" departLane="0" departSpeed="random"/>
    <vehicle id="B_37" type="typeB" route="right" depart="267" departLane="0" departSpeed="random"/>
    <vehicle id="B_38" type="typeB" route="right" depart="269" departLane="0" departSpeed="random"/>
    <vehicle id="A_38" type="typeA" route="right" depart="270" departLane="1" departSpeed="random"/>
    <vehicle id="A_39" type="typeA" route="right" depart="276" departLane="1" departSpeed="random"/>
    <vehicle id="A_40" type="typeA" route="right" depart="282" departLane="1" departSpeed="random"/>
    <vehicle id="B_39" type="typeB" route="right" depart="282" departLane="0" departSpeed="random"/>
    <vehicle id="A_41" type="typeA" route="right" depart="283" departLane="1" departSpeed="random"/>
    <vehicle id="A_42" type="typeA" route="right" depart="284" departLane="1" departSpeed="random"/>
    <vehicle id="B_40" type="typeB" route="right" depart="285" departLane="0" departSpeed="random"/>
    <vehicle id="A_43" type="typeA" route="right" depart="292" departLane="1" departSpeed="random"/>
    <vehicle id="B_41" type="typeB" route="right" depart="292" departLane="0" departSpeed="random"/>
    <vehicle id="A_44" type="typeA" route="right" depart="293" departLane="1" departSpeed="random"/>
    <vehicle id="A_45" type="typeA" route="right" depart="296" departLane="1" departSpeed="random"/>
    <vehicle id="B_42" type="typeB" route="right" depart="296" departLane="0" departSpeed="random"/>
    <vehicle id="A_46" type="typeA" route="right" depart="301" departLane="1" departSpeed="random"/>
    <vehicle id="A_47" type="typeA" route="right" depart="310" departLane="1" departSpeed="random"/>
    <vehicle id="A_48" type="typeA" route="right" depart="326" departLane="1" departSpeed="random"/>
    <vehicle id="B_43" type="typeB" route="right" depart="327" departLane="0" departSpeed="random"/>
    <vehicle id="B_44" type="typeB" route="right" depart="330" departLane="0" departSpeed="random"/>
    <vehicle id="A_49" type="typeA" route="right" depart="333" departLane="1" departSpeed="random"/>
    <vehicle id="A_50" type="typeA" route="right" depart="336" departLane="1" departSpeed="random"/>
    <vehicle id="A_51" type="typeA" route="right" depart="352" departLane="1" departSpeed="random"/>
    <vehicle id="B_45" type="typeB" route="right" depart="353" departLane="0" departSpeed="random"/>
    <vehicle id="A_52" type="typeA" route="right" depart="354" departLane="1" departSpeed="random"/>
    <vehicle id="A_53" type="typeA" route="right" depart="356" departLane="1" departSpeed="random"/>
    <vehicle id="B_46" type="typeB" route="right" depart="357" departLane="0" departSpeed="random"/>
    <vehicle id="A_54" type="typeA" route="right" depart="359" departLane="1" departSpeed="random"/>
    <vehicle id="B_47" type="typeB" route="right" depart="359" departLane="0" departSpeed="random"/>
    <vehicle id="B_48" type="typeB" route="right" depart="360" departLane="0" departSpeed="random"/>
    <vehicle id="A_55" type="typeA" route="right" depart="361" departLane="1" departSpeed="random"/>
    <vehicle id="B_49" type="typeB" route="right" depart="361" departLane="0" departSpeed="random"/>
    <vehicle id="A_56" type="typeA" route="right" depart="364" departLane="1" departSpeed="random"/>
    <vehicle id="A_57" type="typeA" route="right" depart="367" departLane="1" departSpeed="random"/>
    <vehicle id="B_50" type="typeB" route="right" depart="376" departLane="0" departSpeed="random"/>
    <vehicle id="A_58" type="typeA" route="right" depart="383" departLane="1" departSpeed="random"/>
    <vehicle id="B_51" type="typeB" route="right" depart="390" departLane="0" departSpeed="random"/>
    <vehicle id="B_52" type="typeB" route="right" depart="394" departLane="0" departSpeed="random"/>
    <vehicle id="A_59" type="typeA" route="right" depart="398" departLane="1" departSpeed="random"/>
    <vehicle id="A_60" type="typeA" route="right" depart="412" departLane="1" departSpeed="random"/>
    <vehicle id="B_53" type="typeB" route="right" depart="412" departLane="0" departSpeed="random"/>
    <vehicle id="A_61" type="typeA" route="right" depart="413" departLane="1" departSpeed="random"/>
    <vehicle id="B_54" type="typeB" route="right" depart="414" departLane="0" departSpeed="random"/>
    <vehicle id="A_62" type="typeA" route="right" depart="415" departLane="1" departSpeed="random"/>
    <vehicle id="A_63" type="typeA" route="right" depart="416" departLane="1" departSpeed="random"/>
    <vehicle id="A_64" type="typeA" route="right" depart="420" departLane="1" departSpeed="random"/>
    <vehicle id="B_55" type="typeB" route="right" depart="422" departLane="0" departSpeed="random"/>
    <vehicle id="A_65" type="typeA" route="right" depart="423" departLane="1" departSpeed="random"/>
    <vehicle id="A_66" type="typeA" route="right" depart="428" departLane="1" departSpeed="random"/>
    <vehicle id="B_56" type="typeB" route="right" depart="429" departLane="0" departSpeed="random"/>
    <vehicle id="A_67" type="typeA" route="right" depart="433" departLane="1" departSpeed="random"/>
    <vehicle id="B_57" type="typeB" route="right" depart="433" departLane="0" departSpeed="random"/>
    <vehicle id="A_68" type="typeA" route="right" depart="437" departLane="1" departSpeed="random"/>
    <vehicle id="B_58" type="typeB" route="right" depart="439" departLane="0" departSpeed="random"/>
    <vehicle id="A_69" type="typeA" route="right" depart="440" departLane="1" departSpeed="random"/>
    <vehicle id="B_59" type="typeB" route="right" depart="443" departLane="0" departSpeed="random"/>
    <vehicle id="A_70" type="typeA" route="right" depart="445" departLane="1" departSpeed="random"/>
    <vehicle id="A_71" type="typeA" route="right" depart="446" departLane="1" departSpeed="random"/>
    <vehicle id="B_60" type="typeB" route="right" depart="446" departLane="0" departSpeed="random"/>
    <vehicle id="B_61" type="typeB" route="right" depart="447" departLane="0" departSpeed="random"/>
    <vehicle id="A_72" type="typeA" route="right" depart="450" departLane="1" departSpeed="random"/>
    <vehicle id="A_73" type="typeA" route="right" depart="457" departLane="1" departSpeed="random"/>
    <vehicle id="A_74" type="typeA" route="right" depart="460" departLane="1" departSpeed="random"/>
    <vehicle id="B_62" type="typeB" route="right" depart="466" departLane="0" departSpeed="random"/>
    <vehicle id="B_63" type="typeB" route="right" depart="468" departLane="0" departSpeed="random"/>
    <vehicle id="B_64" type="typeB" route="right" depart="471" departLane="0" departSpeed="random"/>
    <vehicle id="A_75" type="typeA" route="right" depart="474" departLane="1" departSpeed="random"/>
    <vehicle id="B_65" type="typeB" route="right" depart="477" departLane="0" departSpeed="random"/>
    <vehicle id="A_76" type="typeA" route="right" depart="479" departLane="1" departSpeed="random"/>
    <vehicle id="B_66" type="typeB" route="right" depart="482" departLane="0" departSpeed="random"/>
    <vehicle id="A_77" type="typeA" route="right" depart="483" departLane="1" departSpeed="random"/>
    <vehicle id="B_67" type="typeB" route="right" depart="484" departLane="0" departSpeed="random"/>
    <vehicle id="A_78" type="typeA" route="right" depart="491" departLane="1" departSpeed="random"/>
    <vehicle id="A_79" type="typeA" route="right" depart="492" departLane="1" departSpeed="random"/>
    <vehicle id="B_68" type="typeB" route="right" depart="498" departLane="0" departSpeed="random"/>
    <vehicle id="B_69" type="typeB" route="right" depart="501" departLane="0" departSpeed="random"/>
    <vehicle id="B_70" type="typeB" route="right" depart="504" departLane="0" departSpeed="random"/>
    <vehicle id="A_80" type="typeA" route="right" depart="506" departLane="1" departSpeed="random"/>
    <vehicle id="A_81" type="typeA" route="right" depart="509" departLane="1" departSpeed="random"/>
    <vehicle id="B_71" type="typeB" route="right" depart="509" departLane="0" departSpeed="random"/>
    <vehicle id="B_72" type="typeB" route="right" depart="513" departLane="0" departSpeed="random"/>
    <vehicle id="A_82" type="typeA" route="right" depart="516" departLane="1" departSpeed="random"/>
    <vehicle id="A_83" type="typeA" route="right" depart="519" departLane="1" departSpeed="random"/>
    <vehicle id="B_73" type="typeB" route="right" depart="519" departLane="0" departSpeed="random"/>
    <vehicle id="B_74" type="typeB" route="right" depart="520" departLane="0" departSpeed="random"/>
    <vehicle id="A_84" type="typeA" route="right" depart="521" departLane="1" departSpeed="random"/>
    <vehicle id="B_75" type="typeB" route="right" depart="521" departLane="0" departSpeed="random"/>
    <vehicle id="B_76" type="typeB" route="right" depart="532" departLane="0" departSpeed="random"/>
    <vehicle id="A_85" type="typeA" route="right" depart="534" departLane="1" departSpeed="random"/>
    <vehicle id="B_77" type="typeB" route="right" depart="541" departLane="0" departSpeed="random"/>
    <vehicle id="B_78" type="typeB" route="right" depart="543" departLane="0" departSpeed="random"/>
    <vehicle id="A_86" type="typeA" route="right" depart="549" departLane="1" departSpeed="random"/>
    <vehicle id="B_79" type="typeB" route="right" depart="550" departLane="0" departSpeed="random"/>
    <vehicle id="B_80" type="typeB" route="right" depart="552" departLane="0" departSpeed="random"/>
    <vehicle id="A_87" type="typeA" route="right" depart="558" departLane="1" departSpeed="random"/>
    <vehicle id="A_88" type="typeA" route="right" depart="559" departLane="1" departSpeed="random"/>
    <vehicle id="B_81" type="typeB" route="right" depart="570" departLane="0" departSpeed="random"/>
    <vehicle id="B_82" type="typeB" route="right" depart="573" departLane="0" departSpeed="random"/>
    <vehicle id="A_89" type="typeA" route="right" depart="574" departLane="1" departSpeed="random"/>
    <vehicle id="A_90" type="typeA" route="right" depart="580" departLane="1" departSpeed="random"/>
    <vehicle id="B_83" type="typeB" route="right" depart="583" departLane="0" departSpeed="random"/>
    <vehicle id="A_91" type="typeA" route="right" depart="585" departLane="1" departSpeed="random"/>
    <vehicle id="B_84" type="typeB" route="right" depart="586" departLane="0" departSpeed="random"/>
    <vehicle id="A_92" type="typeA" route="right" depart="591" departLane="1" departSpeed="random"/>
    <vehicle id="B_85" type="typeB" route="right" depart="592" departLane="0" departSpeed="random"/>
    <vehicle id="B_86" type="typeB" route="right" depart="594" departLane="0" departSpeed="random"/>
    <vehicle id="B_87" type="typeB" route="right" depart="595" departLane="0" departSpeed="random"/>
    <vehicle id="A_93" type="typeA" route="right" depart="597" departLane="1" departSpeed="random"/>
    <vehicle id="A_94" type="typeA" route="right" depart="599" departLane="1" departSpeed="random"/>
</routes>
