<routes>
        <vType id="typeA" type="passenger" length="5" accel="1.5" decel="2" sigma="0.0" maxSpeed="20" color="yellow"/>
        <vType id="typeB" type="passenger" length="5" accel="1.5" decel="2" sigma="0.0" maxSpeed="20" color="blue"/>

        <route id="right" edges="E1 E2" />
    <vehicle id="B_1" type="typeB" route="right" depart="1" departLane="0" departSpeed="random"/>
    <vehicle id="A_1" type="typeA" route="right" depart="4" departLane="1" departSpeed="random"/>
    <vehicle id="A_2" type="typeA" route="right" depart="9" departLane="1" departSpeed="random"/>
    <vehicle id="A_3" type="typeA" route="right" depart="11" departLane="1" departSpeed="random"/>
    <vehicle id="A_4" type="typeA" route="right" depart="15" departLane="1" departSpeed="random"/>
    <vehicle id="B_2" type="typeB" route="right" depart="20" departLane="0" departSpeed="random"/>
    <vehicle id="A_5" type="typeA" route="right" depart="21" departLane="1" departSpeed="random"/>
    <vehicle id="B_3" type="typeB" route="right" depart="21" departLane="0" departSpeed="random"/>
    <vehicle id="B_4" type="typeB" route="right" depart="24" departLane="0" departSpeed="random"/>
    <vehicle id="A_6" type="typeA" route="right" depart="31" departLane="1" departSpeed="random"/>
    <vehicle id="A_7" type="typeA" route="right" depart="37" departLane="1" departSpeed="random"/>
    <vehicle id="A_8" type="typeA" route="right" depart="41" departLane="1" departSpeed="random"/>
    <vehicle id="A_9" type="typeA" route="right" depart="43" departLane="1" departSpeed="random"/>
    <vehicle id="B_5" type="typeB" route="right" depart="45" departLane="0" departSpeed="random"/>
    <vehicle id="B_6" type="typeB" route="right" depart="48" departLane="0" departSpeed="random"/>
    <vehicle id="A_10" type="typeA" route="right" depart="53" departLane="1" departSpeed="random"/>
    <vehicle id="B_7" type="typeB" route="right" depart="53" departLane="0" departSpeed="random"/>
    <vehicle id="A_11" type="typeA" route="right" depart="62" departLane="1" departSpeed="random"/>
    <vehicle id="A_12" type="typeA" route="right" depart="65" departLane="1" departSpeed="random"/>
    <vehicle id="A_13" type="typeA" route="right" depart="67" departLane="1" departSpeed="random"/>
    <vehicle id="A_14" type="typeA" route="right" depart="68" departLane="1" departSpeed="random"/>
    <vehicle id="B_8" type="typeB" route="right" depart="77" departLane="0" departSpeed="random"/>
    <vehicle id="B_9" type="typeB" route="right" depart="85" departLane="0" departSpeed="random"/>
    <vehicle id="B_10" type="typeB" route="right" depart="88" departLane="0" departSpeed="random"/>
    <vehicle id="B_11" type="typeB" route="right" depart="93" departLane="0" departSpeed="random"/>
    <vehicle id="A_15" type="typeA" route="right" depart="96" departLane="1" departSpeed="random"/>
    <vehicle id="B_12" type="typeB" route="right" depart="96" departLane="0" departSpeed="random"/>
    <vehicle id="B_13" type="typeB" route="right" depart="101" departLane="0" departSpeed="random"/>
    <vehicle id="B_14" type="typeB" route="right" depart="110" departLane="0" departSpeed="random"/>
    <vehicle id="B_15" type="typeB" route="right" depart="112" departLane="0" departSpeed="random"/>
    <vehicle id="A_16" type="typeA" route="right" depart="114" departLane="1" departSpeed="random"/>
    <vehicle id="A_17" type="typeA" route="right" depart="118" departLane="1" departSpeed="random"/>
    <vehicle id="B_16" type="typeB" route="right" depart="119" departLane="0" departSpeed="random"/>
    <vehicle id="A_18" type="typeA" route="right" depart="128" departLane="1" departSpeed="random"/>
    <vehicle id="A_19" type="typeA" route="right" depart="137" departLane="1" departSpeed="random"/>
    <vehicle id="B_17" type="typeB" route="right" depart="138" departLane="0" departSpeed="random"/>
    <vehicle id="B_18" type="typeB" route="right" depart="143" departLane="0" departSpeed="random"/>
    <vehicle id="B_19" type="typeB" route="right" depart="144" departLane="0" departSpeed="random"/>
    <vehicle id="B_20" type="typeB" route="right" depart="146" departLane="0" departSpeed="random"/>
    <vehicle id="A_20" type="typeA" route="right" depart="154" departLane="1" departSpeed="random"/>
    <vehicle id="A_21" type="typeA" route="right" depart="159" departLane="1" departSpeed="random"/>
    <vehicle id="A_22" type="typeA" route="right" depart="160" departLane="1" departSpeed="random"/>
    <vehicle id="A_23" type="typeA" route="right" depart="162" departLane="1" departSpeed="random"/>
    <vehicle id="A_24" type="typeA" route="right" depart="163" departLane="1" departSpeed="random"/>
    <vehicle id="A_25" type="typeA" route="right" depart="164" departLane="1" departSpeed="random"/>
    <vehicle id="B_21" type="typeB" route="right" depart="164" departLane="0" departSpeed="random"/>
    <vehicle id="A_26" type="typeA" route="right" depart="166" departLane="1" departSpeed="random"/>
    <vehicle id="A_27" type="typeA" route="right" depart="173" departLane="1" departSpeed="random"/>
    <vehicle id="B_22" type="typeB" route="right" depart="174" departLane="0" departSpeed="random"/>
    <vehicle id="A_28" type="typeA" route="right" depart="188" departLane="1" departSpeed="random"/>
    <vehicle id="B_23" type="typeB" route="right" depart="197" departLane="0" departSpeed="random"/>
    <vehicle id="A_29" type="typeA" route="right" depart="200" departLane="1" departSpeed="random"/>
    <vehicle id="A_30" type="typeA" route="right" depart="205" departLane="1" departSpeed="random"/>
    <vehicle id="B_24" type="typeB" route="right" depart="207" departLane="0" departSpeed="random"/>
    <vehicle id="A_31" type="typeA" route="right" depart="209" departLane="1" departSpeed="random"/>
    <vehicle id="B_25" type="typeB" route="right" depart="216" departLane="0" departSpeed="random"/>
    <vehicle id="A_32" type="typeA" route="right" depart="219" departLane="1" departSpeed="random"/>
    <vehicle id="B_26" type="typeB" route="right" depart="219" departLane="0" departSpeed="random"/>
    <vehicle id="A_33" type="typeA" route="right" depart="222" departLane="1" departSpeed="random"/>
    <vehicle id="B_27" type="typeB" route="right" depart="222" departLane="0" departSpeed="random"/>
    <vehicle id="A_34" type="typeA" route="right" depart="225" departLane="1" departSpeed="random"/>
    <vehicle id="A_35" type="typeA" route="right" depart="226" departLane="1" departSpeed="random"/>
    <vehicle id="A_36" type="typeA" route="right" depart="227" departLane="1" departSpeed="random"/>
    <vehicle id="A_37" type="typeA" route="right" depart="229" departLane="1" departSpeed="random"/>
    <vehicle id="A_38" type="typeA" route="right" depart="233" departLane="1" departSpeed="random"/>
    <vehicle id="A_39" type="typeA" route="right" depart="238" departLane="1" departSpeed="random"/>
    <vehicle id="B_28" type="typeB" route="right" depart="247" departLane="0" departSpeed="random"/>
    <vehicle id="A_40" type="typeA" route="right" depart="256" departLane="1" departSpeed="random"/>
    <vehicle id="A_41" type="typeA" route="right" depart="259" departLane="1" departSpeed="random"/>
    <vehicle id="B_29" type="typeB" route="right" depart="259" departLane="0" departSpeed="random"/>
    <vehicle id="B_30" type="typeB" route="right" depart="265" departLane="0" departSpeed="random"/>
    <vehicle id="B_31" type="typeB" route="right" depart="267" departLane="0" departSpeed="random"/>
    <vehicle id="A_42" type="typeA" route="right" depart="271" departLane="1" departSpeed="random"/>
    <vehicle id="B_32" type="typeB" route="right" depart="272" departLane="0" departSpeed="random"/>
    <vehicle id="B_33" type="typeB" route="right" depart="273" departLane="0" departSpeed="random"/>
    <vehicle id="B_34" type="typeB" route="right" depart="276" departLane="0" departSpeed="random"/>
    <vehicle id="B_35" type="typeB" route="right" depart="282" departLane="0" departSpeed="random"/>
    <vehicle id="B_36" type="typeB" route="right" depart="283" departLane="0" departSpeed="random"/>
    <vehicle id="B_37" type="typeB" route="right" depart="287" departLane="0" departSpeed="random"/>
    <vehicle id="A_43" type="typeA" route="right" depart="289" departLane="1" departSpeed="random"/>
    <vehicle id="A_44" type="typeA" route="right" depart="295" departLane="1" departSpeed="random"/>
    <vehicle id="B_38" type="typeB" route="right" depart="299" departLane="0" departSpeed="random"/>
    <vehicle id="B_39" type="typeB" route="right" depart="303" departLane="0" departSpeed="random"/>
    <vehicle id="A_45" type="typeA" route="right" depart="305" departLane="1" departSpeed="random"/>
    <vehicle id="A_46" type="typeA" route="right" depart="307" departLane="1" departSpeed="random"/>
    <vehicle id="A_47" type="typeA" route="right" depart="309" departLane="1" departSpeed="random"/>
    <vehicle id="B_40" type="typeB" route="right" depart="312" departLane="0" departSpeed="random"/>
    <vehicle id="A_48" type="typeA" route="right" depart="319" departLane="1" departSpeed="random"/>
    <vehicle id="A_49" type="typeA" route="right" depart="320" departLane="1" departSpeed="random"/>
    <vehicle id="A_50" type="typeA" route="right" depart="323" departLane="1" departSpeed="random"/>
    <vehicle id="B_41" type="typeB" route="right" depart="325" departLane="0" departSpeed="random"/>
    <vehicle id="A_51" type="typeA" route="right" depart="326" departLane="1" departSpeed="random"/>
    <vehicle id="A_52" type="typeA" route="right" depart="330" departLane="1" departSpeed="random"/>
    <vehicle id="B_42" type="typeB" route="right" depart="331" departLane="0" departSpeed="random"/>
    <vehicle id="B_43" type="typeB" route="right" depart="334" departLane="0" departSpeed="random"/>
    <vehicle id="B_44" type="typeB" route="right" depart="336" departLane="0" departSpeed="random"/>
    <vehicle id="B_45" type="typeB" route="right" depart="337" departLane="0" departSpeed="random"/>
    <vehicle id="A_53" type="typeA" route="right" depart="338" departLane="1" departSpeed="random"/>
    <vehicle id="A_54" type="typeA" route="right" depart="340" departLane="1" departSpeed="random"/>
    <vehicle id="B_46" type="typeB" route="right" depart="340" departLane="0" departSpeed="random"/>
    <vehicle id="A_55" type="typeA" route="right" depart="348" departLane="1" departSpeed="random"/>
    <vehicle id="B_47" type="typeB" route="right" depart="348" departLane="0" departSpeed="random"/>
    <vehicle id="B_48" type="typeB" route="right" depart="352" departLane="0" departSpeed="random"/>
    <vehicle id="B_49" type="typeB" route="right" depart="353" departLane="0" departSpeed="random"/>
    <vehicle id="B_50" type="typeB" route="right" depart="354" departLane="0" departSpeed="random"/>
    <vehicle id="A_56" type="typeA" route="right" depart="356" departLane="1" departSpeed="random"/>
    <vehicle id="B_51" type="typeB" route="right" depart="359" departLane="0" departSpeed="random"/>
    <vehicle id="A_57" type="typeA" route="right" depart="363" departLane="1" departSpeed="random"/>
    <vehicle id="A_58" type="typeA" route="right" depart="366" departLane="1" departSpeed="random"/>
    <vehicle id="A_59" type="typeA" route="right" depart="371" departLane="1" departSpeed="random"/>
    <vehicle id="B_52" type="typeB" route="right" depart="371" departLane="0" departSpeed="random"/>
    <vehicle id="A_60" type="typeA" route="right" depart="384" departLane="1" departSpeed="random"/>
    <vehicle id="B_53" type="typeB" route="right" depart="387" departLane="0" departSpeed="random"/>
    <vehicle id="A_61" type="typeA" route="right" depart="388" departLane="1" departSpeed="random"/>
    <vehicle id="B_54" type="typeB" route="right" depart="391" departLane="0" departSpeed="random"/>
    <vehicle id="A_62" type="typeA" route="right" depart="395" departLane="1" departSpeed="random"/>
    <vehicle id="B_55" type="typeB" route="right" depart="397" departLane="0" departSpeed="random"/>
    <vehicle id="B_56" type="typeB" route="right" depart="399" departLane="0" departSpeed="random"/>
    <vehicle id="B_57" type="typeB" route="right" depart="400" departLane="0" departSpeed="random"/>
    <vehicle id="B_58" type="typeB" route="right" depart="405" departLane="0" departSpeed="random"/>
    <vehicle id="A_63" type="typeA" route="right" depart="407" departLane="1" departSpeed="random"/>
    <vehicle id="A_64" type="typeA" route="right" depart="408" departLane="1" departSpeed="random"/>
    <vehicle id="B_59" type="typeB" route="right" depart="411" departLane="0" departSpeed="random"/>
    <vehicle id="B_60" type="typeB" route="right" depart="416" departLane="0" departSpeed="random"/>
    <vehicle id="A_65" type="typeA" route="right" depart="421" departLane="1" departSpeed="random"/>
    <vehicle id="B_61" type="typeB" route="right" depart="422" departLane="0" departSpeed="random"/>
    <vehicle id="A_66" type="typeA" route="right" depart="427" departLane="1" departSpeed="random"/>
    <vehicle id="B_62" type="typeB" route="right" depart="428" departLane="0" departSpeed="random"/>
    <vehicle id="B_63" type="typeB" route="right" depart="429" departLane="0" departSpeed="random"/>
    <vehicle id="B_64" type="typeB" route="right" depart="430" departLane="0" departSpeed="random"/>
    <vehicle id="A_67" type="typeA" route="right" depart="432" departLane="1" departSpeed="random"/>
    <vehicle id="A_68" type="typeA" route="right" depart="433" departLane="1" departSpeed="random"/>
    <vehicle id="B_65" type="typeB" route="right" depart="434" departLane="0" departSpeed="random"/>
    <vehicle id="B_66" type="typeB" route="right" depart="438" departLane="0" departSpeed="random"/>
    <vehicle id="A_69" type="typeA" route="right" depart="439" departLane="1" departSpeed="random"/>
    <vehicle id="B_67" type="typeB" route="right" depart="440" departLane="0" departSpeed="random"/>
    <vehicle id="A_70" type="typeA" route="right" depart="447" departLane="1" departSpeed="random"/>
    <vehicle id="B_68" type="typeB" route="right" depart="448" departLane="0" departSpeed="random"/>
    <vehicle id="A_71" type="typeA" route="right" depart="451" departLane="1" departSpeed="random"/>
    <vehicle id="B_69" type="typeB" route="right" depart="455" departLane="0" departSpeed="random"/>
    <vehicle id="A_72" type="typeA" route="right" depart="456" departLane="1" departSpeed="random"/>
    <vehicle id="A_73" type="typeA" route="right" depart="457" departLane="1" departSpeed="random"/>
    <vehicle id="A_74" type="typeA" route="right" depart="458" departLane="1" departSpeed="random"/>
    <vehicle id="B_70" type="typeB" route="right" depart="459" departLane="0" departSpeed="random"/>
    <vehicle id="A_75" type="typeA" route="right" depart="461" departLane="1" departSpeed="random"/>
    <vehicle id="B_71" type="typeB" route="right" depart="461" departLane="0" departSpeed="random"/>
    <vehicle id="A_76" type="typeA" route="right" depart="463" departLane="1" departSpeed="random"/>
    <vehicle id="A_77" type="typeA" route="right" depart="468" departLane="1" departSpeed="random"/>
    <vehicle id="A_78" type="typeA" route="right" depart="472" departLane="1" departSpeed="random"/>
    <vehicle id="A_79" type="typeA" route="right" depart="476" departLane="1" departSpeed="random"/>
    <vehicle id="A_80" type="typeA" route="right" depart="480" departLane="1" departSpeed="random"/>
    <vehicle id="A_81" type="typeA" route="right" depart="484" departLane="1" departSpeed="random"/>
    <vehicle id="B_72" type="typeB" route="right" depart="486" departLane="0" departSpeed="random"/>
    <vehicle id="B_73" type="typeB" route="right" depart="495" departLane="0" departSpeed="random"/>
    <vehicle id="B_74" type="typeB" route="right" depart="499" departLane="0" departSpeed="random"/>
    <vehicle id="B_75" type="typeB" route="right" depart="503" departLane="0" departSpeed="random"/>
    <vehicle id="B_76" type="typeB" route="right" depart="504" departLane="0" departSpeed="random"/>
    <vehicle id="A_82" type="typeA" route="right" depart="509" departLane="1" departSpeed="random"/>
    <vehicle id="A_83" type="typeA" route="right" depart="512" departLane="1" departSpeed="random"/>
    <vehicle id="B_77" type="typeB" route="right" depart="514" departLane="0" departSpeed="random"/>
    <vehicle id="A_84" type="typeA" route="right" depart="519" departLane="1" departSpeed="random"/>
    <vehicle id="B_78" type="typeB" route="right" depart="522" departLane="0" departSpeed="random"/>
    <vehicle id="A_85" type="typeA" route="right" depart="524" departLane="1" departSpeed="random"/>
    <vehicle id="B_79" type="typeB" route="right" depart="526" departLane="0" departSpeed="random"/>
    <vehicle id="B_80" type="typeB" route="right" depart="527" departLane="0" departSpeed="random"/>
    <vehicle id="B_81" type="typeB" route="right" depart="542" departLane="0" departSpeed="random"/>
    <vehicle id="A_86" type="typeA" route="right" depart="547" departLane="1" departSpeed="random"/>
    <vehicle id="B_82" type="typeB" route="right" depart="548" departLane="0" departSpeed="random"/>
    <vehicle id="B_83" type="typeB" route="right" depart="552" departLane="0" departSpeed="random"/>
    <vehicle id="B_84" type="typeB" route="right" depart="554" departLane="0" departSpeed="random"/>
    <vehicle id="A_87" type="typeA" route="right" depart="555" departLane="1" departSpeed="random"/>
    <vehicle id="A_88" type="typeA" route="right" depart="559" departLane="1" departSpeed="random"/>
    <vehicle id="A_89" type="typeA" route="right" depart="560" departLane="1" departSpeed="random"/>
    <vehicle id="B_85" type="typeB" route="right" depart="563" departLane="0" departSpeed="random"/>
    <vehicle id="A_90" type="typeA" route="right" depart="567" departLane="1" departSpeed="random"/>
    <vehicle id="A_91" type="typeA" route="right" depart="570" departLane="1" departSpeed="random"/>
    <vehicle id="A_92" type="typeA" route="right" depart="573" departLane="1" departSpeed="random"/>
    <vehicle id="B_86" type="typeB" route="right" depart="574" departLane="0" departSpeed="random"/>
    <vehicle id="A_93" type="typeA" route="right" depart="575" departLane="1" departSpeed="random"/>
    <vehicle id="B_87" type="typeB" route="right" depart="576" departLane="0" departSpeed="random"/>
    <vehicle id="A_94" type="typeA" route="right" depart="578" departLane="1" departSpeed="random"/>
    <vehicle id="B_88" type="typeB" route="right" depart="579" departLane="0" departSpeed="random"/>
    <vehicle id="B_89" type="typeB" route="right" depart="580" departLane="0" departSpeed="random"/>
    <vehicle id="A_95" type="typeA" route="right" depart="582" departLane="1" departSpeed="random"/>
    <vehicle id="B_90" type="typeB" route="right" depart="583" departLane="0" departSpeed="random"/>
    <vehicle id="A_96" type="typeA" route="right" depart="586" departLane="1" departSpeed="random"/>
    <vehicle id="B_91" type="typeB" route="right" depart="587" departLane="0" departSpeed="random"/>
    <vehicle id="B_92" type="typeB" route="right" depart="591" departLane="0" departSpeed="random"/>
    <vehicle id="B_93" type="typeB" route="right" depart="594" departLane="0" departSpeed="random"/>
    <vehicle id="B_94" type="typeB" route="right" depart="596" departLane="0" departSpeed="random"/>
    <vehicle id="A_97" type="typeA" route="right" depart="597" departLane="1" departSpeed="random"/>
    <vehicle id="A_98" type="typeA" route="right" depart="598" departLane="1" departSpeed="random"/>
    <vehicle id="B_95" type="typeB" route="right" depart="599" departLane="0" departSpeed="random"/>
    <vehicle id="B_96" type="typeB" route="right" depart="602" departLane="0" departSpeed="random"/>
    <vehicle id="B_97" type="typeB" route="right" depart="609" departLane="0" departSpeed="random"/>
    <vehicle id="B_98" type="typeB" route="right" depart="612" departLane="0" departSpeed="random"/>
    <vehicle id="A_99" type="typeA" route="right" depart="613" departLane="1" departSpeed="random"/>
    <vehicle id="A_100" type="typeA" route="right" depart="619" departLane="1" departSpeed="random"/>
    <vehicle id="B_99" type="typeB" route="right" depart="620" departLane="0" departSpeed="random"/>
    <vehicle id="B_100" type="typeB" route="right" depart="621" departLane="0" departSpeed="random"/>
    <vehicle id="B_101" type="typeB" route="right" depart="625" departLane="0" departSpeed="random"/>
    <vehicle id="B_102" type="typeB" route="right" depart="626" departLane="0" departSpeed="random"/>
    <vehicle id="B_103" type="typeB" route="right" depart="632" departLane="0" departSpeed="random"/>
    <vehicle id="A_101" type="typeA" route="right" depart="633" departLane="1" departSpeed="random"/>
    <vehicle id="B_104" type="typeB" route="right" depart="634" departLane="0" departSpeed="random"/>
    <vehicle id="B_105" type="typeB" route="right" depart="635" departLane="0" departSpeed="random"/>
    <vehicle id="A_102" type="typeA" route="right" depart="647" departLane="1" departSpeed="random"/>
    <vehicle id="B_106" type="typeB" route="right" depart="647" departLane="0" departSpeed="random"/>
    <vehicle id="A_103" type="typeA" route="right" depart="648" departLane="1" departSpeed="random"/>
    <vehicle id="B_107" type="typeB" route="right" depart="652" departLane="0" departSpeed="random"/>
    <vehicle id="A_104" type="typeA" route="right" depart="655" departLane="1" departSpeed="random"/>
    <vehicle id="B_108" type="typeB" route="right" depart="655" departLane="0" departSpeed="random"/>
    <vehicle id="B_109" type="typeB" route="right" depart="656" departLane="0" departSpeed="random"/>
    <vehicle id="B_110" type="typeB" route="right" depart="658" departLane="0" departSpeed="random"/>
    <vehicle id="B_111" type="typeB" route="right" depart="660" departLane="0" departSpeed="random"/>
    <vehicle id="A_105" type="typeA" route="right" depart="662" departLane="1" departSpeed="random"/>
    <vehicle id="A_106" type="typeA" route="right" depart="663" departLane="1" departSpeed="random"/>
    <vehicle id="B_112" type="typeB" route="right" depart="665" departLane="0" departSpeed="random"/>
    <vehicle id="A_107" type="typeA" route="right" depart="669" departLane="1" departSpeed="random"/>
    <vehicle id="B_113" type="typeB" route="right" depart="671" departLane="0" departSpeed="random"/>
    <vehicle id="A_108" type="typeA" route="right" depart="674" departLane="1" departSpeed="random"/>
    <vehicle id="B_114" type="typeB" route="right" depart="678" departLane="0" departSpeed="random"/>
    <vehicle id="A_109" type="typeA" route="right" depart="679" departLane="1" departSpeed="random"/>
    <vehicle id="A_110" type="typeA" route="right" depart="685" departLane="1" departSpeed="random"/>
    <vehicle id="B_115" type="typeB" route="right" depart="689" departLane="0" departSpeed="random"/>
    <vehicle id="B_116" type="typeB" route="right" depart="692" departLane="0" departSpeed="random"/>
    <vehicle id="B_117" type="typeB" route="right" depart="693" departLane="0" departSpeed="random"/>
    <vehicle id="A_111" type="typeA" route="right" depart="694" departLane="1" departSpeed="random"/>
    <vehicle id="B_118" type="typeB" route="right" depart="694" departLane="0" departSpeed="random"/>
    <vehicle id="A_112" type="typeA" route="right" depart="695" departLane="1" departSpeed="random"/>
    <vehicle id="B_119" type="typeB" route="right" depart="697" departLane="0" departSpeed="random"/>
    <vehicle id="A_113" type="typeA" route="right" depart="698" departLane="1" departSpeed="random"/>
    <vehicle id="A_114" type="typeA" route="right" depart="699" departLane="1" departSpeed="random"/>
    <vehicle id="A_115" type="typeA" route="right" depart="700" departLane="1" departSpeed="random"/>
    <vehicle id="A_116" type="typeA" route="right" depart="701" departLane="1" departSpeed="random"/>
    <vehicle id="B_120" type="typeB" route="right" depart="702" departLane="0" departSpeed="random"/>
    <vehicle id="B_121" type="typeB" route="right" depart="703" departLane="0" departSpeed="random"/>
    <vehicle id="A_117" type="typeA" route="right" depart="711" departLane="1" departSpeed="random"/>
    <vehicle id="B_122" type="typeB" route="right" depart="711" departLane="0" departSpeed="random"/>
    <vehicle id="B_123" type="typeB" route="right" depart="713" departLane="0" departSpeed="random"/>
    <vehicle id="A_118" type="typeA" route="right" depart="714" departLane="1" departSpeed="random"/>
    <vehicle id="B_124" type="typeB" route="right" depart="716" departLane="0" departSpeed="random"/>
    <vehicle id="B_125" type="typeB" route="right" depart="717" departLane="0" departSpeed="random"/>
    <vehicle id="A_119" type="typeA" route="right" depart="726" departLane="1" departSpeed="random"/>
    <vehicle id="B_126" type="typeB" route="right" depart="726" departLane="0" departSpeed="random"/>
    <vehicle id="A_120" type="typeA" route="right" depart="727" departLane="1" departSpeed="random"/>
    <vehicle id="A_121" type="typeA" route="right" depart="729" departLane="1" departSpeed="random"/>
    <vehicle id="B_127" type="typeB" route="right" depart="731" departLane="0" departSpeed="random"/>
    <vehicle id="B_128" type="typeB" route="right" depart="732" departLane="0" departSpeed="random"/>
    <vehicle id="A_122" type="typeA" route="right" depart="740" departLane="1" departSpeed="random"/>
    <vehicle id="A_123" type="typeA" route="right" depart="744" departLane="1" departSpeed="random"/>
    <vehicle id="B_129" type="typeB" route="right" depart="744" departLane="0" departSpeed="random"/>
    <vehicle id="A_124" type="typeA" route="right" depart="751" departLane="1" departSpeed="random"/>
    <vehicle id="B_130" type="typeB" route="right" depart="752" departLane="0" departSpeed="random"/>
    <vehicle id="B_131" type="typeB" route="right" depart="754" departLane="0" departSpeed="random"/>
    <vehicle id="A_125" type="typeA" route="right" depart="757" departLane="1" departSpeed="random"/>
    <vehicle id="A_126" type="typeA" route="right" depart="759" departLane="1" departSpeed="random"/>
    <vehicle id="A_127" type="typeA" route="right" depart="763" departLane="1" departSpeed="random"/>
    <vehicle id="B_132" type="typeB" route="right" depart="763" departLane="0" departSpeed="random"/>
    <vehicle id="B_133" type="typeB" route="right" depart="767" departLane="0" departSpeed="random"/>
    <vehicle id="B_134" type="typeB" route="right" depart="770" departLane="0" departSpeed="random"/>
    <vehicle id="A_128" type="typeA" route="right" depart="772" departLane="1" departSpeed="random"/>
    <vehicle id="A_129" type="typeA" route="right" depart="775" departLane="1" departSpeed="random"/>
    <vehicle id="B_135" type="typeB" route="right" depart="775" departLane="0" departSpeed="random"/>
    <vehicle id="A_130" type="typeA" route="right" depart="779" departLane="1" departSpeed="random"/>
    <vehicle id="A_131" type="typeA" route="right" depart="782" departLane="1" departSpeed="random"/>
    <vehicle id="B_136" type="typeB" route="right" depart="782" departLane="0" departSpeed="random"/>
    <vehicle id="B_137" type="typeB" route="right" depart="786" departLane="0" departSpeed="random"/>
    <vehicle id="A_132" type="typeA" route="right" depart="788" departLane="1" departSpeed="random"/>
    <vehicle id="B_138" type="typeB" route="right" depart="798" departLane="0" departSpeed="random"/>
    <vehicle id="B_139" type="typeB" route="right" depart="803" departLane="0" departSpeed="random"/>
    <vehicle id="A_133" type="typeA" route="right" depart="806" departLane="1" departSpeed="random"/>
    <vehicle id="A_134" type="typeA" route="right" depart="812" departLane="1" departSpeed="random"/>
    <vehicle id="B_140" type="typeB" route="right" depart="817" departLane="0" departSpeed="random"/>
    <vehicle id="B_141" type="typeB" route="right" depart="822" departLane="0" departSpeed="random"/>
    <vehicle id="B_142" type="typeB" route="right" depart="823" departLane="0" departSpeed="random"/>
    <vehicle id="A_135" type="typeA" route="right" depart="831" departLane="1" departSpeed="random"/>
    <vehicle id="A_136" type="typeA" route="right" depart="833" departLane="1" departSpeed="random"/>
    <vehicle id="A_137" type="typeA" route="right" depart="834" departLane="1" departSpeed="random"/>
    <vehicle id="A_138" type="typeA" route="right" depart="838" departLane="1" departSpeed="random"/>
    <vehicle id="B_143" type="typeB" route="right" depart="844" departLane="0" departSpeed="random"/>
    <vehicle id="A_139" type="typeA" route="right" depart="846" departLane="1" departSpeed="random"/>
    <vehicle id="B_144" type="typeB" route="right" depart="846" departLane="0" departSpeed="random"/>
    <vehicle id="A_140" type="typeA" route="right" depart="855" departLane="1" departSpeed="random"/>
    <vehicle id="B_145" type="typeB" route="right" depart="855" departLane="0" departSpeed="random"/>
    <vehicle id="B_146" type="typeB" route="right" depart="862" departLane="0" departSpeed="random"/>
    <vehicle id="A_141" type="typeA" route="right" depart="863" departLane="1" departSpeed="random"/>
    <vehicle id="A_142" type="typeA" route="right" depart="866" departLane="1" departSpeed="random"/>
    <vehicle id="A_143" type="typeA" route="right" depart="869" departLane="1" departSpeed="random"/>
    <vehicle id="A_144" type="typeA" route="right" depart="872" departLane="1" departSpeed="random"/>
    <vehicle id="B_147" type="typeB" route="right" depart="872" departLane="0" departSpeed="random"/>
    <vehicle id="B_148" type="typeB" route="right" depart="881" departLane="0" departSpeed="random"/>
    <vehicle id="A_145" type="typeA" route="right" depart="882" departLane="1" departSpeed="random"/>