<routes>
        <vType id="typeA" type="passenger" length="5" accel="1.5" decel="2" sigma="0.0" maxSpeed="20" color="yellow"/>
        <vType id="typeB" type="passenger" length="5" accel="1.5" decel="2" sigma="0.0" maxSpeed="20" color="blue"/>

        <route id="right" edges="E1 E2" />
    <vehicle id="A_1" type="typeA" route="right" depart="2" departLane="1" departSpeed="random"/>
    <vehicle id="A_2" type="typeA" route="right" depart="5" departLane="1" departSpeed="random"/>
    <vehicle id="A_3" type="typeA" route="right" depart="8" departLane="1" departSpeed="random"/>
    <vehicle id="A_4" type="typeA" route="right" depart="11" departLane="1" departSpeed="random"/>
    <vehicle id="B_1" type="typeB" route="right" depart="13" departLane="0" departSpeed="random"/>
    <vehicle id="B_2" type="typeB" route="right" depart="15" departLane="0" departSpeed="random"/>
    <vehicle id="A_5" type="typeA" route="right" depart="18" departLane="1" departSpeed="random"/>
    <vehicle id="B_3" type="typeB" route="right" depart="18" departLane="0" departSpeed="random"/>
    <vehicle id="B_4" type="typeB" route="right" depart="19" departLane="0" departSpeed="random"/>
    <vehicle id="A_6" type="typeA" route="right" depart="21" departLane="1" departSpeed="random"/>
    <vehicle id="A_7" type="typeA" route="right" depart="22" departLane="1" departSpeed="random"/>
    <vehicle id="B_5" type="typeB" route="right" depart="28" departLane="0" departSpeed="random"/>
    <vehicle id="A_8" type="typeA" route="right" depart="29" departLane="1" departSpeed="random"/>
    <vehicle id="A_9" type="typeA" route="right" depart="37" departLane="1" departSpeed="random"/>
    <vehicle id="B_6" type="typeB" route="right" depart="52" departLane="0" departSpeed="random"/>
    <vehicle id="A_10" type="typeA" route="right" depart="53" departLane="1" departSpeed="random"/>
    <vehicle id="A_11" type="typeA" route="right" depart="56" departLane="1" departSpeed="random"/>
    <vehicle id="B_7" type="typeB" route="right" depart="56" departLane="0" departSpeed="random"/>
    <vehicle id="A_12" type="typeA" route="right" depart="63" departLane="1" departSpeed="random"/>
    <vehicle id="A_13" type="typeA" route="right" depart="65" departLane="1" departSpeed="random"/>
    <vehicle id="B_8" type="typeB" route="right" depart="68" departLane="0" departSpeed="random"/>
    <vehicle id="A_14" type="typeA" route="right" depart="69" departLane="1" departSpeed="random"/>
    <vehicle id="B_9" type="typeB" route="right" depart="70" departLane="0" departSpeed="random"/>
    <vehicle id="A_15" type="typeA" route="right" depart="75" departLane="1" departSpeed="random"/>
    <vehicle id="A_16" type="typeA" route="right" depart="76" departLane="1" departSpeed="random"/>
    <vehicle id="B_10" type="typeB" route="right" depart="79" departLane="0" departSpeed="random"/>
    <vehicle id="B_11" type="typeB" route="right" depart="82" departLane="0" departSpeed="random"/>
    <vehicle id="B_12" type="typeB" route="right" depart="84" departLane="0" departSpeed="random"/>
    <vehicle id="B_13" type="typeB" route="right" depart="89" departLane="0" departSpeed="random"/>
    <vehicle id="B_14" type="typeB" route="right" depart="91" departLane="0" departSpeed="random"/>
    <vehicle id="A_17" type="typeA" route="right" depart="92" departLane="1" departSpeed="random"/>
    <vehicle id="B_15" type="typeB" route="right" depart="92" departLane="0" departSpeed="random"/>
    <vehicle id="B_16" type="typeB" route="right" depart="98" departLane="0" departSpeed="random"/>
    <vehicle id="A_18" type="typeA" route="right" depart="105" departLane="1" departSpeed="random"/>
    <vehicle id="A_19" type="typeA" route="right" depart="106" departLane="1" departSpeed="random"/>
    <vehicle id="B_17" type="typeB" route="right" depart="106" departLane="0" departSpeed="random"/>
    <vehicle id="B_18" type="typeB" route="right" depart="113" departLane="0" departSpeed="random"/>
    <vehicle id="B_19" type="typeB" route="right" depart="114" departLane="0" departSpeed="random"/>
    <vehicle id="A_20" type="typeA" route="right" depart="115" departLane="1" departSpeed="random"/>
    <vehicle id="B_20" type="typeB" route="right" depart="116" departLane="0" departSpeed="random"/>
    <vehicle id="B_21" type="typeB" route="right" depart="117" departLane="0" departSpeed="random"/>
    <vehicle id="A_21" type="typeA" route="right" depart="118" departLane="1" departSpeed="random"/>
    <vehicle id="A_22" type="typeA" route="right" depart="121" departLane="1" departSpeed="random"/>
    <vehicle id="B_22" type="typeB" route="right" depart="129" departLane="0" departSpeed="random"/>
    <vehicle id="B_23" type="typeB" route="right" depart="132" departLane="0" departSpeed="random"/>
    <vehicle id="B_24" type="typeB" route="right" depart="133" departLane="0" departSpeed="random"/>
    <vehicle id="A_23" type="typeA" route="right" depart="138" departLane="1" departSpeed="random"/>
    <vehicle id="B_25" type="typeB" route="right" depart="139" departLane="0" departSpeed="random"/>
    <vehicle id="B_26" type="typeB" route="right" depart="141" departLane="0" departSpeed="random"/>
    <vehicle id="B_27" type="typeB" route="right" depart="142" departLane="0" departSpeed="random"/>
    <vehicle id="A_24" type="typeA" route="right" depart="144" departLane="1" departSpeed="random"/>
    <vehicle id="B_28" type="typeB" route="right" depart="144" departLane="0" departSpeed="random"/>
    <vehicle id="B_29" type="typeB" route="right" depart="149" departLane="0" departSpeed="random"/>
    <vehicle id="B_30" type="typeB" route="right" depart="153" departLane="0" departSpeed="random"/>
    <vehicle id="B_31" type="typeB" route="right" depart="154" departLane="0" departSpeed="random"/>
    <vehicle id="A_25" type="typeA" route="right" depart="162" departLane="1" departSpeed="random"/>
    <vehicle id="B_32" type="typeB" route="right" depart="163" departLane="0" departSpeed="random"/>
    <vehicle id="A_26" type="typeA" route="right" depart="165" departLane="1" departSpeed="random"/>
    <vehicle id="A_27" type="typeA" route="right" depart="166" departLane="1" departSpeed="random"/>
    <vehicle id="B_33" type="typeB" route="right" depart="167" departLane="0" departSpeed="random"/>
    <vehicle id="A_28" type="typeA" route="right" depart="168" departLane="1" departSpeed="random"/>
    <vehicle id="A_29" type="typeA" route="right" depart="169" departLane="1" departSpeed="random"/>
    <vehicle id="B_34" type="typeB" route="right" depart="169" departLane="0" departSpeed="random"/>
    <vehicle id="B_35" type="typeB" route="right" depart="171" departLane="0" departSpeed="random"/>
    <vehicle id="A_30" type="typeA" route="right" depart="173" departLane="1" departSpeed="random"/>
    <vehicle id="B_36" type="typeB" route="right" depart="173" departLane="0" departSpeed="random"/>
    <vehicle id="B_37" type="typeB" route="right" depart="177" departLane="0" departSpeed="random"/>
    <vehicle id="B_38" type="typeB" route="right" depart="182" departLane="0" departSpeed="random"/>
    <vehicle id="A_31" type="typeA" route="right" depart="183" departLane="1" departSpeed="random"/>
    <vehicle id="B_39" type="typeB" route="right" depart="187" departLane="0" departSpeed="random"/>
    <vehicle id="B_40" type="typeB" route="right" depart="192" departLane="0" departSpeed="random"/>
    <vehicle id="A_32" type="typeA" route="right" depart="194" departLane="1" departSpeed="random"/>
    <vehicle id="A_33" type="typeA" route="right" depart="197" departLane="1" departSpeed="random"/>
    <vehicle id="B_41" type="typeB" route="right" depart="200" departLane="0" departSpeed="random"/>
    <vehicle id="A_34" type="typeA" route="right" depart="203" departLane="1" departSpeed="random"/>
    <vehicle id="B_42" type="typeB" route="right" depart="204" departLane="0" departSpeed="random"/>
    <vehicle id="B_43" type="typeB" route="right" depart="208" departLane="0" departSpeed="random"/>
    <vehicle id="A_35" type="typeA" route="right" depart="209" departLane="1" departSpeed="random"/>
    <vehicle id="A_36" type="typeA" route="right" depart="213" departLane="1" departSpeed="random"/>
    <vehicle id="B_44" type="typeB" route="right" depart="213" departLane="0" departSpeed="random"/>
    <vehicle id="A_37" type="typeA" route="right" depart="216" departLane="1" departSpeed="random"/>
    <vehicle id="A_38" type="typeA" route="right" depart="219" departLane="1" departSpeed="random"/>
    <vehicle id="A_39" type="typeA" route="right" depart="221" departLane="1" departSpeed="random"/>
    <vehicle id="B_45" type="typeB" route="right" depart="222" departLane="0" departSpeed="random"/>
    <vehicle id="B_46" type="typeB" route="right" depart="225" departLane="0" departSpeed="random"/>
    <vehicle id="A_40" type="typeA" route="right" depart="226" departLane="1" departSpeed="random"/>
    <vehicle id="A_41" type="typeA" route="right" depart="230" departLane="1" departSpeed="random"/>
    <vehicle id="B_47" type="typeB" route="right" depart="231" departLane="0" departSpeed="random"/>
    <vehicle id="A_42" type="typeA" route="right" depart="235" departLane="1" departSpeed="random"/>
    <vehicle id="B_48" type="typeB" route="right" depart="236" departLane="0" departSpeed="random"/>
    <vehicle id="A_43" type="typeA" route="right" depart="238" departLane="1" departSpeed="random"/>
    <vehicle id="B_49" type="typeB" route="right" depart="240" departLane="0" departSpeed="random"/>
    <vehicle id="A_44" type="typeA" route="right" depart="241" departLane="1" departSpeed="random"/>
    <vehicle id="B_50" type="typeB" route="right" depart="244" departLane="0" departSpeed="random"/>
    <vehicle id="A_45" type="typeA" route="right" depart="249" departLane="1" departSpeed="random"/>
    <vehicle id="B_51" type="typeB" route="right" depart="253" departLane="0" departSpeed="random"/>
    <vehicle id="B_52" type="typeB" route="right" depart="266" departLane="0" departSpeed="random"/>
    <vehicle id="B_53" type="typeB" route="right" depart="268" departLane="0" departSpeed="random"/>
    <vehicle id="B_54" type="typeB" route="right" depart="276" departLane="0" departSpeed="random"/>
    <vehicle id="B_55" type="typeB" route="right" depart="277" departLane="0" departSpeed="random"/>
    <vehicle id="A_46" type="typeA" route="right" depart="279" departLane="1" departSpeed="random"/>
    <vehicle id="B_56" type="typeB" route="right" depart="286" departLane="0" departSpeed="random"/>
    <vehicle id="A_47" type="typeA" route="right" depart="287" departLane="1" departSpeed="random"/>
    <vehicle id="B_57" type="typeB" route="right" depart="287" departLane="0" departSpeed="random"/>
    <vehicle id="B_58" type="typeB" route="right" depart="294" departLane="0" departSpeed="random"/>
    <vehicle id="B_59" type="typeB" route="right" depart="295" departLane="0" departSpeed="random"/>
    <vehicle id="A_48" type="typeA" route="right" depart="304" departLane="1" departSpeed="random"/>
    <vehicle id="B_60" type="typeB" route="right" depart="304" departLane="0" departSpeed="random"/>
    <vehicle id="B_61" type="typeB" route="right" depart="305" departLane="0" departSpeed="random"/>
    <vehicle id="B_62" type="typeB" route="right" depart="309" departLane="0" departSpeed="random"/>
    <vehicle id="A_49" type="typeA" route="right" depart="310" departLane="1" departSpeed="random"/>
    <vehicle id="A_50" type="typeA" route="right" depart="314" departLane="1" departSpeed="random"/>
    <vehicle id="B_63" type="typeB" route="right" depart="315" departLane="0" departSpeed="random"/>
    <vehicle id="A_51" type="typeA" route="right" depart="322" departLane="1" departSpeed="random"/>
    <vehicle id="A_52" type="typeA" route="right" depart="324" departLane="1" departSpeed="random"/>
    <vehicle id="A_53" type="typeA" route="right" depart="327" departLane="1" departSpeed="random"/>
    <vehicle id="A_54" type="typeA" route="right" depart="328" departLane="1" departSpeed="random"/>
    <vehicle id="B_64" type="typeB" route="right" depart="328" departLane="0" departSpeed="random"/>
    <vehicle id="A_55" type="typeA" route="right" depart="333" departLane="1" departSpeed="random"/>
    <vehicle id="A_56" type="typeA" route="right" depart="336" departLane="1" departSpeed="random"/>
    <vehicle id="A_57" type="typeA" route="right" depart="339" departLane="1" departSpeed="random"/>
    <vehicle id="A_58" type="typeA" route="right" depart="340" departLane="1" departSpeed="random"/>
    <vehicle id="B_65" type="typeB" route="right" depart="344" departLane="0" departSpeed="random"/>
    <vehicle id="A_59" type="typeA" route="right" depart="346" departLane="1" departSpeed="random"/>
    <vehicle id="B_66" type="typeB" route="right" depart="349" departLane="0" departSpeed="random"/>
    <vehicle id="A_60" type="typeA" route="right" depart="351" departLane="1" departSpeed="random"/>
    <vehicle id="A_61" type="typeA" route="right" depart="352" departLane="1" departSpeed="random"/>
    <vehicle id="B_67" type="typeB" route="right" depart="355" departLane="0" departSpeed="random"/>
    <vehicle id="B_68" type="typeB" route="right" depart="365" departLane="0" departSpeed="random"/>
    <vehicle id="A_62" type="typeA" route="right" depart="366" departLane="1" departSpeed="random"/>
    <vehicle id="A_63" type="typeA" route="right" depart="369" departLane="1" departSpeed="random"/>
    <vehicle id="A_64" type="typeA" route="right" depart="373" departLane="1" departSpeed="random"/>
    <vehicle id="B_69" type="typeB" route="right" depart="373" departLane="0" departSpeed="random"/>
    <vehicle id="A_65" type="typeA" route="right" depart="374" departLane="1" departSpeed="random"/>
    <vehicle id="B_70" type="typeB" route="right" depart="380" departLane="0" departSpeed="random"/>
    <vehicle id="B_71" type="typeB" route="right" depart="381" departLane="0" departSpeed="random"/>
    <vehicle id="A_66" type="typeA" route="right" depart="383" departLane="1" departSpeed="random"/>
    <vehicle id="A_67" type="typeA" route="right" depart="386" departLane="1" departSpeed="random"/>
    <vehicle id="B_72" type="typeB" route="right" depart="386" departLane="0" departSpeed="random"/>
    <vehicle id="B_73" type="typeB" route="right" depart="389" departLane="0" departSpeed="random"/>
    <vehicle id="B_74" type="typeB" route="right" depart="391" departLane="0" departSpeed="random"/>
    <vehicle id="A_68" type="typeA" route="right" depart="394" departLane="1" departSpeed="random"/>
    <vehicle id="B_75" type="typeB" route="right" depart="396" departLane="0" departSpeed="random"/>
    <vehicle id="B_76" type="typeB" route="right" depart="397" departLane="0" departSpeed="random"/>
    <vehicle id="A_69" type="typeA" route="right" depart="406" departLane="1" departSpeed="random"/>
    <vehicle id="B_77" type="typeB" route="right" depart="409" departLane="0" departSpeed="random"/>
    <vehicle id="A_70" type="typeA" route="right" depart="410" departLane="1" departSpeed="random"/>
    <vehicle id="A_71" type="typeA" route="right" depart="419" departLane="1" departSpeed="random"/>
    <vehicle id="B_78" type="typeB" route="right" depart="419" departLane="0" departSpeed="random"/>
    <vehicle id="B_79" type="typeB" route="right" depart="425" departLane="0" departSpeed="random"/>
    <vehicle id="A_72" type="typeA" route="right" depart="433" departLane="1" departSpeed="random"/>
    <vehicle id="A_73" type="typeA" route="right" depart="434" departLane="1" departSpeed="random"/>
    <vehicle id="B_80" type="typeB" route="right" depart="436" departLane="0" departSpeed="random"/>
    <vehicle id="B_81" type="typeB" route="right" depart="438" departLane="0" departSpeed="random"/>
    <vehicle id="B_82" type="typeB" route="right" depart="439" departLane="0" departSpeed="random"/>
    <vehicle id="A_74" type="typeA" route="right" depart="440" departLane="1" departSpeed="random"/>
    <vehicle id="B_83" type="typeB" route="right" depart="440" departLane="0" departSpeed="random"/>
    <vehicle id="A_75" type="typeA" route="right" depart="446" departLane="1" departSpeed="random"/>
    <vehicle id="B_84" type="typeB" route="right" depart="448" departLane="0" departSpeed="random"/>
    <vehicle id="A_76" type="typeA" route="right" depart="452" departLane="1" departSpeed="random"/>
    <vehicle id="B_85" type="typeB" route="right" depart="454" departLane="0" departSpeed="random"/>
    <vehicle id="A_77" type="typeA" route="right" depart="462" departLane="1" departSpeed="random"/>
    <vehicle id="A_78" type="typeA" route="right" depart="463" departLane="1" departSpeed="random"/>
    <vehicle id="B_86" type="typeB" route="right" depart="464" departLane="0" departSpeed="random"/>
    <vehicle id="B_87" type="typeB" route="right" depart="467" departLane="0" departSpeed="random"/>
    <vehicle id="A_79" type="typeA" route="right" depart="474" departLane="1" departSpeed="random"/>
    <vehicle id="B_88" type="typeB" route="right" depart="475" departLane="0" departSpeed="random"/>
    <vehicle id="B_89" type="typeB" route="right" depart="478" departLane="0" departSpeed="random"/>
    <vehicle id="A_80" type="typeA" route="right" depart="482" departLane="1" departSpeed="random"/>
    <vehicle id="A_81" type="typeA" route="right" depart="483" departLane="1" departSpeed="random"/>
    <vehicle id="B_90" type="typeB" route="right" depart="483" departLane="0" departSpeed="random"/>
    <vehicle id="A_82" type="typeA" route="right" depart="487" departLane="1" departSpeed="random"/>
    <vehicle id="A_83" type="typeA" route="right" depart="489" departLane="1" departSpeed="random"/>
    <vehicle id="A_84" type="typeA" route="right" depart="490" departLane="1" departSpeed="random"/>
    <vehicle id="A_85" type="typeA" route="right" depart="492" departLane="1" departSpeed="random"/>
    <vehicle id="A_86" type="typeA" route="right" depart="494" departLane="1" departSpeed="random"/>
    <vehicle id="B_91" type="typeB" route="right" depart="494" departLane="0" departSpeed="random"/>
    <vehicle id="B_92" type="typeB" route="right" depart="496" departLane="0" departSpeed="random"/>
    <vehicle id="A_87" type="typeA" route="right" depart="497" departLane="1" departSpeed="random"/>
    <vehicle id="A_88" type="typeA" route="right" depart="499" departLane="1" departSpeed="random"/>
    <vehicle id="A_89" type="typeA" route="right" depart="500" departLane="1" departSpeed="random"/>
    <vehicle id="B_93" type="typeB" route="right" depart="500" departLane="0" departSpeed="random"/>
    <vehicle id="B_94" type="typeB" route="right" depart="503" departLane="0" departSpeed="random"/>
    <vehicle id="A_90" type="typeA" route="right" depart="507" departLane="1" departSpeed="random"/>
    <vehicle id="B_95" type="typeB" route="right" depart="507" departLane="0" departSpeed="random"/>
    <vehicle id="B_96" type="typeB" route="right" depart="509" departLane="0" departSpeed="random"/>
    <vehicle id="A_91" type="typeA" route="right" depart="510" departLane="1" departSpeed="random"/>
    <vehicle id="B_97" type="typeB" route="right" depart="510" departLane="0" departSpeed="random"/>
    <vehicle id="A_92" type="typeA" route="right" depart="514" departLane="1" departSpeed="random"/>
    <vehicle id="A_93" type="typeA" route="right" depart="515" departLane="1" departSpeed="random"/>
    <vehicle id="B_98" type="typeB" route="right" depart="528" departLane="0" departSpeed="random"/>
    <vehicle id="B_99" type="typeB" route="right" depart="529" departLane="0" departSpeed="random"/>
    <vehicle id="B_100" type="typeB" route="right" depart="533" departLane="0" departSpeed="random"/>
    <vehicle id="A_94" type="typeA" route="right" depart="534" departLane="1" departSpeed="random"/>
    <vehicle id="A_95" type="typeA" route="right" depart="539" departLane="1" departSpeed="random"/>
    <vehicle id="A_96" type="typeA" route="right" depart="541" departLane="1" departSpeed="random"/>
    <vehicle id="B_101" type="typeB" route="right" depart="543" departLane="0" departSpeed="random"/>
    <vehicle id="B_102" type="typeB" route="right" depart="544" departLane="0" departSpeed="random"/>
    <vehicle id="A_97" type="typeA" route="right" depart="545" departLane="1" departSpeed="random"/>
    <vehicle id="B_103" type="typeB" route="right" depart="555" departLane="0" departSpeed="random"/>
    <vehicle id="B_104" type="typeB" route="right" depart="562" departLane="0" departSpeed="random"/>
    <vehicle id="B_105" type="typeB" route="right" depart="565" departLane="0" departSpeed="random"/>
    <vehicle id="B_106" type="typeB" route="right" depart="569" departLane="0" departSpeed="random"/>
    <vehicle id="A_98" type="typeA" route="right" depart="570" departLane="1" departSpeed="random"/>
    <vehicle id="A_99" type="typeA" route="right" depart="571" departLane="1" departSpeed="random"/>
    <vehicle id="A_100" type="typeA" route="right" depart="580" departLane="1" departSpeed="random"/>
    <vehicle id="A_101" type="typeA" route="right" depart="583" departLane="1" departSpeed="random"/>
    <vehicle id="A_102" type="typeA" route="right" depart="594" departLane="1" departSpeed="random"/>
    <vehicle id="B_107" type="typeB" route="right" depart="598" departLane="0" departSpeed="random"/>
    <vehicle id="A_103" type="typeA" route="right" depart="599" departLane="1" departSpeed="random"/>
</routes>
