<routes>
        <vType id="typeA" type="passenger" length="5" accel="1.5" decel="2" sigma="0.0" maxSpeed="20" color="yellow"/>
        <vType id="typeB" type="passenger" length="5" accel="1.5" decel="2" sigma="0.0" maxSpeed="20" color="blue"/>
        <vType id="typeC" type="passenger" length="5" accel="1.5" decel="2" sigma="0.0" maxSpeed="20" color="magenta"/>

        <route id="right" edges="E1 E2" />
    <vehicle id="C_1" type="typeC" route="right" depart="3" departLane="0" departSpeed="random"/>
    <vehicle id="C_2" type="typeC" route="right" depart="4" departLane="0" departSpeed="random"/>
    <vehicle id="B_1" type="typeB" route="right" depart="7" departLane="1" departSpeed="random"/>
    <vehicle id="C_3" type="typeC" route="right" depart="10" departLane="0" departSpeed="random"/>
    <vehicle id="C_4" type="typeC" route="right" depart="11" departLane="0" departSpeed="random"/>
    <vehicle id="C_5" type="typeC" route="right" depart="17" departLane="0" departSpeed="random"/>
    <vehicle id="C_6" type="typeC" route="right" depart="21" departLane="0" departSpeed="random"/>
    <vehicle id="B_2" type="typeB" route="right" depart="22" departLane="1" departSpeed="random"/>
    <vehicle id="C_7" type="typeC" route="right" depart="25" departLane="0" departSpeed="random"/>
    <vehicle id="B_3" type="typeB" route="right" depart="34" departLane="1" departSpeed="random"/>
    <vehicle id="C_8" type="typeC" route="right" depart="37" departLane="0" departSpeed="random"/>
    <vehicle id="C_9" type="typeC" route="right" depart="58" departLane="0" departSpeed="random"/>
    <vehicle id="B_4" type="typeB" route="right" depart="61" departLane="1" departSpeed="random"/>
    <vehicle id="B_5" type="typeB" route="right" depart="65" departLane="1" departSpeed="random"/>
    <vehicle id="C_10" type="typeC" route="right" depart="65" departLane="0" departSpeed="random"/>
    <vehicle id="B_6" type="typeB" route="right" depart="72" departLane="1" departSpeed="random"/>
    <vehicle id="C_11" type="typeC" route="right" depart="74" departLane="0" departSpeed="random"/>
    <vehicle id="B_7" type="typeB" route="right" depart="77" departLane="1" departSpeed="random"/>
    <vehicle id="B_8" type="typeB" route="right" depart="78" departLane="1" departSpeed="random"/>
    <vehicle id="B_9" type="typeB" route="right" depart="94" departLane="1" departSpeed="random"/>
    <vehicle id="B_10" type="typeB" route="right" depart="96" departLane="1" departSpeed="random"/>
    <vehicle id="B_11" type="typeB" route="right" depart="105" departLane="1" departSpeed="random"/>
    <vehicle id="B_12" type="typeB" route="right" depart="107" departLane="1" departSpeed="random"/>
    <vehicle id="B_13" type="typeB" route="right" depart="110" departLane="1" departSpeed="random"/>
    <vehicle id="B_14" type="typeB" route="right" depart="114" departLane="1" departSpeed="random"/>
    <vehicle id="C_12" type="typeC" route="right" depart="116" departLane="0" departSpeed="random"/>
    <vehicle id="B_15" type="typeB" route="right" depart="125" departLane="1" departSpeed="random"/>
    <vehicle id="B_16" type="typeB" route="right" depart="132" departLane="1" departSpeed="random"/>
    <vehicle id="B_17" type="typeB" route="right" depart="133" departLane="1" departSpeed="random"/>
    <vehicle id="B_18" type="typeB" route="right" depart="135" departLane="1" departSpeed="random"/>
    <vehicle id="B_19" type="typeB" route="right" depart="150" departLane="1" departSpeed="random"/>
    <vehicle id="B_20" type="typeB" route="right" depart="154" departLane="1" departSpeed="random"/>
    <vehicle id="B_21" type="typeB" route="right" depart="161" departLane="1" departSpeed="random"/>
    <vehicle id="C_13" type="typeC" route="right" depart="168" departLane="0" departSpeed="random"/>
    <vehicle id="B_22" type="typeB" route="right" depart="179" departLane="1" departSpeed="random"/>
    <vehicle id="B_23" type="typeB" route="right" depart="191" departLane="1" departSpeed="random"/>
    <vehicle id="B_24" type="typeB" route="right" depart="194" departLane="1" departSpeed="random"/>
    <vehicle id="B_25" type="typeB" route="right" depart="197" departLane="1" departSpeed="random"/>
    <vehicle id="B_26" type="typeB" route="right" depart="200" departLane="1" departSpeed="random"/>
    <vehicle id="C_14" type="typeC" route="right" depart="204" departLane="0" departSpeed="random"/>
    <vehicle id="C_15" type="typeC" route="right" depart="206" departLane="0" departSpeed="random"/>
    <vehicle id="C_16" type="typeC" route="right" depart="214" departLane="0" departSpeed="random"/>
    <vehicle id="B_27" type="typeB" route="right" depart="221" departLane="1" departSpeed="random"/>
    <vehicle id="B_28" type="typeB" route="right" depart="223" departLane="1" departSpeed="random"/>
    <vehicle id="B_29" type="typeB" route="right" depart="226" departLane="1" departSpeed="random"/>
    <vehicle id="C_17" type="typeC" route="right" depart="230" departLane="0" departSpeed="random"/>
    <vehicle id="B_30" type="typeB" route="right" depart="237" departLane="1" departSpeed="random"/>
    <vehicle id="B_31" type="typeB" route="right" depart="238" departLane="1" departSpeed="random"/>
    <vehicle id="B_32" type="typeB" route="right" depart="240" departLane="1" departSpeed="random"/>
    <vehicle id="B_33" type="typeB" route="right" depart="241" departLane="1" departSpeed="random"/>
    <vehicle id="C_18" type="typeC" route="right" depart="244" departLane="0" departSpeed="random"/>
    <vehicle id="B_34" type="typeB" route="right" depart="261" departLane="1" departSpeed="random"/>
    <vehicle id="C_19" type="typeC" route="right" depart="268" departLane="0" departSpeed="random"/>
    <vehicle id="C_20" type="typeC" route="right" depart="270" departLane="0" departSpeed="random"/>
    <vehicle id="C_21" type="typeC" route="right" depart="273" departLane="0" departSpeed="random"/>
    <vehicle id="C_22" type="typeC" route="right" depart="274" departLane="0" departSpeed="random"/>
    <vehicle id="B_35" type="typeB" route="right" depart="275" departLane="1" departSpeed="random"/>
    <vehicle id="B_36" type="typeB" route="right" depart="277" departLane="1" departSpeed="random"/>
    <vehicle id="C_23" type="typeC" route="right" depart="277" departLane="0" departSpeed="random"/>
    <vehicle id="C_24" type="typeC" route="right" depart="290" departLane="0" departSpeed="random"/>
    <vehicle id="B_37" type="typeB" route="right" depart="291" departLane="1" departSpeed="random"/>
    <vehicle id="B_38" type="typeB" route="right" depart="316" departLane="1" departSpeed="random"/>
    <vehicle id="C_25" type="typeC" route="right" depart="317" departLane="0" departSpeed="random"/>
    <vehicle id="B_39" type="typeB" route="right" depart="320" departLane="1" departSpeed="random"/>
    <vehicle id="B_40" type="typeB" route="right" depart="328" departLane="1" departSpeed="random"/>
    <vehicle id="B_41" type="typeB" route="right" depart="331" departLane="1" departSpeed="random"/>
    <vehicle id="C_26" type="typeC" route="right" depart="331" departLane="0" departSpeed="random"/>
    <vehicle id="B_42" type="typeB" route="right" depart="336" departLane="1" departSpeed="random"/>
    <vehicle id="C_27" type="typeC" route="right" depart="336" departLane="0" departSpeed="random"/>
    <vehicle id="C_28" type="typeC" route="right" depart="340" departLane="0" departSpeed="random"/>
    <vehicle id="C_29" type="typeC" route="right" depart="343" departLane="0" departSpeed="random"/>
    <vehicle id="C_30" type="typeC" route="right" depart="346" departLane="0" departSpeed="random"/>
    <vehicle id="B_43" type="typeB" route="right" depart="365" departLane="1" departSpeed="random"/>
    <vehicle id="C_31" type="typeC" route="right" depart="365" departLane="0" departSpeed="random"/>
    <vehicle id="B_44" type="typeB" route="right" depart="367" departLane="1" departSpeed="random"/>
    <vehicle id="B_45" type="typeB" route="right" depart="372" departLane="1" departSpeed="random"/>
    <vehicle id="B_46" type="typeB" route="right" depart="378" departLane="1" departSpeed="random"/>
    <vehicle id="C_32" type="typeC" route="right" depart="378" departLane="0" departSpeed="random"/>
    <vehicle id="B_47" type="typeB" route="right" depart="380" departLane="1" departSpeed="random"/>
    <vehicle id="C_33" type="typeC" route="right" depart="387" departLane="0" departSpeed="random"/>
    <vehicle id="C_34" type="typeC" route="right" depart="393" departLane="0" departSpeed="random"/>
    <vehicle id="C_35" type="typeC" route="right" depart="395" departLane="0" departSpeed="random"/>
    <vehicle id="B_48" type="typeB" route="right" depart="397" departLane="1" departSpeed="random"/>
    <vehicle id="C_36" type="typeC" route="right" depart="403" departLane="0" departSpeed="random"/>
    <vehicle id="B_49" type="typeB" route="right" depart="419" departLane="1" departSpeed="random"/>
    <vehicle id="C_37" type="typeC" route="right" depart="421" departLane="0" departSpeed="random"/>
    <vehicle id="C_38" type="typeC" route="right" depart="423" departLane="0" departSpeed="random"/>
    <vehicle id="C_39" type="typeC" route="right" depart="425" departLane="0" departSpeed="random"/>
    <vehicle id="B_50" type="typeB" route="right" depart="430" departLane="1" departSpeed="random"/>
    <vehicle id="C_40" type="typeC" route="right" depart="438" departLane="0" departSpeed="random"/>
    <vehicle id="B_51" type="typeB" route="right" depart="439" departLane="1" departSpeed="random"/>
    <vehicle id="C_41" type="typeC" route="right" depart="440" departLane="0" departSpeed="random"/>
    <vehicle id="B_52" type="typeB" route="right" depart="441" departLane="1" departSpeed="random"/>
    <vehicle id="B_53" type="typeB" route="right" depart="455" departLane="1" departSpeed="random"/>
    <vehicle id="C_42" type="typeC" route="right" depart="456" departLane="0" departSpeed="random"/>
    <vehicle id="C_43" type="typeC" route="right" depart="458" departLane="0" departSpeed="random"/>
    <vehicle id="C_44" type="typeC" route="right" depart="459" departLane="0" departSpeed="random"/>
    <vehicle id="B_54" type="typeB" route="right" depart="460" departLane="1" departSpeed="random"/>
    <vehicle id="C_45" type="typeC" route="right" depart="464" departLane="0" departSpeed="random"/>
    <vehicle id="B_55" type="typeB" route="right" depart="465" departLane="1" departSpeed="random"/>
    <vehicle id="B_56" type="typeB" route="right" depart="466" departLane="1" departSpeed="random"/>
    <vehicle id="C_46" type="typeC" route="right" depart="468" departLane="0" departSpeed="random"/>
    <vehicle id="B_57" type="typeB" route="right" depart="473" departLane="1" departSpeed="random"/>
    <vehicle id="B_58" type="typeB" route="right" depart="477" departLane="1" departSpeed="random"/>
    <vehicle id="C_47" type="typeC" route="right" depart="483" departLane="0" departSpeed="random"/>
    <vehicle id="C_48" type="typeC" route="right" depart="485" departLane="0" departSpeed="random"/>
    <vehicle id="B_59" type="typeB" route="right" depart="486" departLane="1" departSpeed="random"/>
    <vehicle id="C_49" type="typeC" route="right" depart="486" departLane="0" departSpeed="random"/>
    <vehicle id="B_60" type="typeB" route="right" depart="494" departLane="1" departSpeed="random"/>
    <vehicle id="C_50" type="typeC" route="right" depart="495" departLane="0" departSpeed="random"/>
    <vehicle id="B_61" type="typeB" route="right" depart="499" departLane="1" departSpeed="random"/>
    <vehicle id="C_51" type="typeC" route="right" depart="499" departLane="0" departSpeed="random"/>
    <vehicle id="C_52" type="typeC" route="right" depart="509" departLane="0" departSpeed="random"/>
    <vehicle id="C_53" type="typeC" route="right" depart="512" departLane="0" departSpeed="random"/>
    <vehicle id="B_62" type="typeB" route="right" depart="515" departLane="1" departSpeed="random"/>
    <vehicle id="C_54" type="typeC" route="right" depart="522" departLane="0" departSpeed="random"/>
    <vehicle id="B_63" type="typeB" route="right" depart="526" departLane="1" departSpeed="random"/>
    <vehicle id="C_55" type="typeC" route="right" depart="526" departLane="0" departSpeed="random"/>
    <vehicle id="C_56" type="typeC" route="right" depart="527" departLane="0" departSpeed="random"/>
    <vehicle id="B_64" type="typeB" route="right" depart="533" departLane="1" departSpeed="random"/>
    <vehicle id="C_57" type="typeC" route="right" depart="536" departLane="0" departSpeed="random"/>
    <vehicle id="C_58" type="typeC" route="right" depart="542" departLane="0" departSpeed="random"/>
    <vehicle id="C_59" type="typeC" route="right" depart="543" departLane="0" departSpeed="random"/>
    <vehicle id="B_65" type="typeB" route="right" depart="544" departLane="1" departSpeed="random"/>
    <vehicle id="B_66" type="typeB" route="right" depart="551" departLane="1" departSpeed="random"/>
    <vehicle id="B_67" type="typeB" route="right" depart="556" departLane="1" departSpeed="random"/>
    <vehicle id="B_68" type="typeB" route="right" depart="568" departLane="1" departSpeed="random"/>
    <vehicle id="C_60" type="typeC" route="right" depart="575" departLane="0" departSpeed="random"/>
    <vehicle id="C_61" type="typeC" route="right" depart="577" departLane="0" departSpeed="random"/>
    <vehicle id="C_62" type="typeC" route="right" depart="578" departLane="0" departSpeed="random"/>
    <vehicle id="B_69" type="typeB" route="right" depart="590" departLane="1" departSpeed="random"/>
    <vehicle id="C_63" type="typeC" route="right" depart="594" departLane="0" departSpeed="random"/>
    <vehicle id="B_70" type="typeB" route="right" depart="596" departLane="1" departSpeed="random"/>
    <vehicle id="B_71" type="typeB" route="right" depart="597" departLane="1" departSpeed="random"/>
    <vehicle id="C_64" type="typeC" route="right" depart="599" departLane="0" departSpeed="random"/>
    <vehicle id="C_65" type="typeC" route="right" depart="617" departLane="0" departSpeed="random"/>
    <vehicle id="C_66" type="typeC" route="right" depart="621" departLane="0" departSpeed="random"/>
    <vehicle id="C_67" type="typeC" route="right" depart="627" departLane="0" departSpeed="random"/>
    <vehicle id="C_68" type="typeC" route="right" depart="631" departLane="0" departSpeed="random"/>
    <vehicle id="C_69" type="typeC" route="right" depart="633" departLane="0" departSpeed="random"/>
    <vehicle id="C_70" type="typeC" route="right" depart="635" departLane="0" departSpeed="random"/>
    <vehicle id="B_72" type="typeB" route="right" depart="642" departLane="1" departSpeed="random"/>
    <vehicle id="C_71" type="typeC" route="right" depart="649" departLane="0" departSpeed="random"/>
    <vehicle id="B_73" type="typeB" route="right" depart="650" departLane="1" departSpeed="random"/>
    <vehicle id="C_72" type="typeC" route="right" depart="658" departLane="0" departSpeed="random"/>
    <vehicle id="C_73" type="typeC" route="right" depart="662" departLane="0" departSpeed="random"/>
    <vehicle id="B_74" type="typeB" route="right" depart="668" departLane="1" departSpeed="random"/>
    <vehicle id="C_74" type="typeC" route="right" depart="677" departLane="0" departSpeed="random"/>
    <vehicle id="C_75" type="typeC" route="right" depart="679" departLane="0" departSpeed="random"/>
    <vehicle id="B_75" type="typeB" route="right" depart="682" departLane="1" departSpeed="random"/>
    <vehicle id="C_76" type="typeC" route="right" depart="685" departLane="0" departSpeed="random"/>
    <vehicle id="C_77" type="typeC" route="right" depart="687" departLane="0" departSpeed="random"/>
    <vehicle id="C_78" type="typeC" route="right" depart="691" departLane="0" departSpeed="random"/>
    <vehicle id="B_76" type="typeB" route="right" depart="693" departLane="1" departSpeed="random"/>
    <vehicle id="B_77" type="typeB" route="right" depart="696" departLane="1" departSpeed="random"/>
    <vehicle id="C_79" type="typeC" route="right" depart="697" departLane="0" departSpeed="random"/>
    <vehicle id="B_78" type="typeB" route="right" depart="699" departLane="1" departSpeed="random"/>
    <vehicle id="B_79" type="typeB" route="right" depart="701" departLane="1" departSpeed="random"/>
    <vehicle id="C_80" type="typeC" route="right" depart="710" departLane="0" departSpeed="random"/>
    <vehicle id="B_80" type="typeB" route="right" depart="715" departLane="1" departSpeed="random"/>
    <vehicle id="C_81" type="typeC" route="right" depart="722" departLane="0" departSpeed="random"/>
    <vehicle id="B_81" type="typeB" route="right" depart="723" departLane="1" departSpeed="random"/>
    <vehicle id="C_82" type="typeC" route="right" depart="728" departLane="0" departSpeed="random"/>
    <vehicle id="C_83" type="typeC" route="right" depart="734" departLane="0" departSpeed="random"/>
    <vehicle id="C_84" type="typeC" route="right" depart="736" departLane="0" departSpeed="random"/>
    <vehicle id="B_82" type="typeB" route="right" depart="739" departLane="1" departSpeed="random"/>
    <vehicle id="B_83" type="typeB" route="right" depart="744" departLane="1" departSpeed="random"/>
    <vehicle id="B_84" type="typeB" route="right" depart="746" departLane="1" departSpeed="random"/>
    <vehicle id="C_85" type="typeC" route="right" depart="746" departLane="0" departSpeed="random"/>
    <vehicle id="B_85" type="typeB" route="right" depart="748" departLane="1" departSpeed="random"/>
    <vehicle id="B_86" type="typeB" route="right" depart="756" departLane="1" departSpeed="random"/>
    <vehicle id="B_87" type="typeB" route="right" depart="760" departLane="1" departSpeed="random"/>
    <vehicle id="B_88" type="typeB" route="right" depart="765" departLane="1" departSpeed="random"/>
    <vehicle id="B_89" type="typeB" route="right" depart="766" departLane="1" departSpeed="random"/>
    <vehicle id="B_90" type="typeB" route="right" depart="776" departLane="1" departSpeed="random"/>
    <vehicle id="C_86" type="typeC" route="right" depart="780" departLane="0" departSpeed="random"/>
    <vehicle id="B_91" type="typeB" route="right" depart="794" departLane="1" departSpeed="random"/>
    <vehicle id="C_87" type="typeC" route="right" depart="796" departLane="0" departSpeed="random"/>
    <vehicle id="C_88" type="typeC" route="right" depart="802" departLane="0" departSpeed="random"/>
    <vehicle id="B_92" type="typeB" route="right" depart="803" departLane="1" departSpeed="random"/>
    <vehicle id="C_89" type="typeC" route="right" depart="803" departLane="0" departSpeed="random"/>
    <vehicle id="C_90" type="typeC" route="right" depart="809" departLane="0" departSpeed="random"/>
    <vehicle id="B_93" type="typeB" route="right" depart="827" departLane="1" departSpeed="random"/>
    <vehicle id="C_91" type="typeC" route="right" depart="828" departLane="0" departSpeed="random"/>
    <vehicle id="C_92" type="typeC" route="right" depart="830" departLane="0" departSpeed="random"/>
    <vehicle id="C_93" type="typeC" route="right" depart="837" departLane="0" departSpeed="random"/>
    <vehicle id="B_94" type="typeB" route="right" depart="845" departLane="1" departSpeed="random"/>
    <vehicle id="B_95" type="typeB" route="right" depart="846" departLane="1" departSpeed="random"/>
    <vehicle id="B_96" type="typeB" route="right" depart="847" departLane="1" departSpeed="random"/>
    <vehicle id="C_94" type="typeC" route="right" depart="848" departLane="0" departSpeed="random"/>
    <vehicle id="B_97" type="typeB" route="right" depart="855" departLane="1" departSpeed="random"/>
    <vehicle id="C_95" type="typeC" route="right" depart="857" departLane="0" departSpeed="random"/>
    <vehicle id="B_98" type="typeB" route="right" depart="860" departLane="1" departSpeed="random"/>
    <vehicle id="B_99" type="typeB" route="right" depart="861" departLane="1" departSpeed="random"/>
    <vehicle id="C_96" type="typeC" route="right" depart="865" departLane="0" departSpeed="random"/>
    <vehicle id="B_100" type="typeB" route="right" depart="870" departLane="1" departSpeed="random"/>
    <vehicle id="C_97" type="typeC" route="right" depart="876" departLane="0" departSpeed="random"/>
    <vehicle id="B_101" type="typeB" route="right" depart="879" departLane="1" departSpeed="random"/>
    <vehicle id="B_102" type="typeB" route="right" depart="880" departLane="1" departSpeed="random"/>
    <vehicle id="C_98" type="typeC" route="right" depart="882" departLane="0" departSpeed="random"/>
    <vehicle id="B_103" type="typeB" route="right" depart="887" departLane="1" departSpeed="random"/>
    <vehicle id="C_99" type="typeC" route="right" depart="895" departLane="0" departSpeed="random"/>
    <vehicle id="B_104" type="typeB" route="right" depart="904" departLane="1" departSpeed="random"/>
    <vehicle id="B_105" type="typeB" route="right" depart="917" departLane="1" departSpeed="random"/>
    <vehicle id="C_100" type="typeC" route="right" depart="925" departLane="0" departSpeed="random"/>
    <vehicle id="B_106" type="typeB" route="right" depart="928" departLane="1" departSpeed="random"/>
    <vehicle id="C_101" type="typeC" route="right" depart="929" departLane="0" departSpeed="random"/>
    <vehicle id="C_102" type="typeC" route="right" depart="935" departLane="0" departSpeed="random"/>
    <vehicle id="B_107" type="typeB" route="right" depart="943" departLane="1" departSpeed="random"/>
    <vehicle id="C_103" type="typeC" route="right" depart="947" departLane="0" departSpeed="random"/>
    <vehicle id="B_108" type="typeB" route="right" depart="950" departLane="1" departSpeed="random"/>
    <vehicle id="B_109" type="typeB" route="right" depart="955" departLane="1" departSpeed="random"/>
    <vehicle id="C_104" type="typeC" route="right" depart="957" departLane="0" departSpeed="random"/>
    <vehicle id="B_110" type="typeB" route="right" depart="958" departLane="1" departSpeed="random"/>
    <vehicle id="C_105" type="typeC" route="right" depart="962" departLane="0" departSpeed="random"/>
    <vehicle id="B_111" type="typeB" route="right" depart="963" departLane="1" departSpeed="random"/>
    <vehicle id="B_112" type="typeB" route="right" depart="965" departLane="1" departSpeed="random"/>
    <vehicle id="C_106" type="typeC" route="right" depart="971" departLane="0" departSpeed="random"/>
    <vehicle id="B_113" type="typeB" route="right" depart="972" departLane="1" departSpeed="random"/>
    <vehicle id="C_107" type="typeC" route="right" depart="975" departLane="0" departSpeed="random"/>
    <vehicle id="C_108" type="typeC" route="right" depart="978" departLane="0" departSpeed="random"/>
    <vehicle id="B_114" type="typeB" route="right" depart="979" departLane="1" departSpeed="random"/>
    <vehicle id="C_109" type="typeC" route="right" depart="984" departLane="0" departSpeed="random"/>
    <vehicle id="B_115" type="typeB" route="right" depart="987" departLane="1" departSpeed="random"/>
    <vehicle id="B_116" type="typeB" route="right" depart="998" departLane="1" departSpeed="random"/>
</routes>
