<?xml version="1.0" encoding="UTF-8"?>

<!-- generated on 二  1/19 14:15:12 2021 by Eclipse SUMO netedit Version 1.7.0
<configuration xmlns:xsi="http://www.w3.org/2001/XMLSchema-instance" xsi:noNamespaceSchemaLocation="http://sumo.dlr.de/xsd/netconvertConfiguration.xsd">

    <input>
        <sumo-net-file value="/Users/jcp/Desktop/OneDrive%20-%20國立成功大學/Intelligent%20Vehicles/Project/Lane-Merging/laneMerging.net.xml"/>
    </input>

    <output>
        <output-file value="/Users/jcp/Desktop/OneDrive%20-%20國立成功大學/Intelligent%20Vehicles/Project/Lane-Merging/three_to.net.xml"/>
    </output>

    <processing>
        <geometry.min-radius.fix.railways value="false"/>
        <geometry.max-grade.fix value="false"/>
        <offset.disable-normalization value="true"/>
        <lefthand value="false"/>
    </processing>

    <junctions>
        <no-internal-links value="true"/>
        <no-turnarounds value="true"/>
        <junctions.corner-detail value="5"/>
        <junctions.limit-turn-speed value="5.5"/>
        <rectangular-lane-cut value="false"/>
    </junctions>

    <pedestrian>
        <walkingareas value="false"/>
    </pedestrian>

    <report>
        <aggregate-warnings value="5"/>
    </report>

</configuration>
-->

<net version="1.6" junctionCornerDetail="5" limitTurnSpeed="5.50" xmlns:xsi="http://www.w3.org/2001/XMLSchema-instance" xsi:noNamespaceSchemaLocation="http://sumo.dlr.de/xsd/net_file.xsd">

    <location netOffset="0.00,0.00" convBoundary="0.00,0.00,800.00,0.00" origBoundary="-10000000000.00,-10000000000.00,10000000000.00,10000000000.00" projParameter="!"/>

    <edge id="E1" from="gneJ0" to="gneJ1" priority="-1">
        <stopOffset vClasses="all" value="0.00"/>
        <lane id="E1_0" index="0" speed="13.89" length="500.00" shape="0.00,-8.00 496.00,-8.00"/>
        <lane id="E1_1" index="1" speed="13.89" length="500.00" shape="0.00,-4.80 496.00,-4.80"/>
        <lane id="E1_2" index="2" speed="13.89" length="500.00" shape="0.00,-1.60 496.00,-1.60"/>
    </edge>
    <edge id="E2" from="gneJ1" to="gneJ2" priority="-1">
        <lane id="E2_0" index="0" speed="13.89" length="300.00" shape="504.00,-4.80 800.00,-4.80"/>
        <lane id="E2_1" index="1" speed="13.89" length="300.00" shape="504.00,-1.60 800.00,-1.60"/>
    </edge>

    <tlLogic id="TL1" type="static" programID="0" offset="0">
        <!-- 0 -->
        <phase duration="1000" state="GGGG"/>
        <!-- 1 -->
        <phase duration="1000" state="rrrr"/>
        <!-- 2 -->
        <phase duration="1"  state="rGrG"/>
        <phase duration="1000" state="rrrr"/>
        <!-- 4 -->
        <phase duration="1"  state="GrrG"/>
        <phase duration="1000" state="rrrr"/>
        <!-- 6 -->
        <phase duration="1"  state="GrGr"/>
        <phase duration="1000" state="rrrr"/>
        <!-- 8 -->
        <phase duration="1"  state="rrrG"/>
        <phase duration="1000" state="rrrr"/>
        <!-- 10 -->
        <phase duration="1"  state="rrGr"/>
        <phase duration="1000" state="rrrr"/>
        <!-- 12 -->
        <phase duration="1"  state="rGrr"/>
        <phase duration="1000" state="rrrr"/>
        <!-- 14 -->
        <phase duration="1"  state="Grrr"/>
        <phase duration="1000" state="rrrr"/>
    </tlLogic>

    <junction id="gneJ0" type="dead_end" x="0.00" y="0.00" incLanes="" intLanes="" shape="0.00,0.00 0.00,-9.60"/>
    <junction id="gneJ1" type="traffic_light" x="500.00" y="0.00" incLanes="E1_0 E1_1 E1_2" intLanes="" shape="504.00,0.00 504.00,-6.40 500.97,-7.23 499.03,-8.77 497.79,-9.36 496.00,-9.60 496.00,0.00" fringe="outer">
        <request index="0" response="0010" foes="0010"/>
        <request index="1" response="0000" foes="0001"/>
        <request index="2" response="1000" foes="1000"/>
        <request index="3" response="0000" foes="0100"/>
    </junction>
    <junction id="gneJ2" type="dead_end" x="800.00" y="0.00" incLanes="E2_0 E2_1" intLanes="" shape="800.00,-6.40 800.00,0.00" fringe="outer"/>

    <connection from="E1" to="E2" fromLane="0" toLane="0" tl="TL1" linkIndex="0" dir="s" state="o"/>
    <connection from="E1" to="E2" fromLane="1" toLane="0" tl="TL1" linkIndex="1" dir="s" state="O"/>
    <connection from="E1" to="E2" fromLane="1" toLane="1" tl="TL1" linkIndex="2" dir="s" state="o"/>
    <connection from="E1" to="E2" fromLane="2" toLane="1" keepClear="0" tl="TL1" linkIndex="3" dir="s" state="O"/>

</net>
