<routes>
        <vType id="typeA" type="passenger" length="5" accel="1.5" decel="2" sigma="0.0" maxSpeed="20" color="yellow"/>
        <vType id="typeB" type="passenger" length="5" accel="1.5" decel="2" sigma="0.0" maxSpeed="20" color="blue"/>
        <vType id="typeC" type="passenger" length="5" accel="1.5" decel="2" sigma="0.0" maxSpeed="20" color="magenta"/>

        <route id="right" edges="E1 E2" />
    <vehicle id="C_1" type="typeC" route="right" depart="1" departLane="0" departSpeed="random"/>
    <vehicle id="B_1" type="typeB" route="right" depart="2" departLane="1" departSpeed="random"/>
    <vehicle id="C_2" type="typeC" route="right" depart="3" departLane="0" departSpeed="random"/>
    <vehicle id="B_2" type="typeB" route="right" depart="11" departLane="1" departSpeed="random"/>
    <vehicle id="B_3" type="typeB" route="right" depart="13" departLane="1" departSpeed="random"/>
    <vehicle id="B_4" type="typeB" route="right" depart="16" departLane="1" departSpeed="random"/>
    <vehicle id="C_3" type="typeC" route="right" depart="17" departLane="0" departSpeed="random"/>
    <vehicle id="C_4" type="typeC" route="right" depart="20" departLane="0" departSpeed="random"/>
    <vehicle id="C_5" type="typeC" route="right" depart="26" departLane="0" departSpeed="random"/>
    <vehicle id="C_6" type="typeC" route="right" depart="28" departLane="0" departSpeed="random"/>
    <vehicle id="C_7" type="typeC" route="right" depart="35" departLane="0" departSpeed="random"/>
    <vehicle id="B_5" type="typeB" route="right" depart="37" departLane="1" departSpeed="random"/>
    <vehicle id="B_6" type="typeB" route="right" depart="41" departLane="1" departSpeed="random"/>
    <vehicle id="C_8" type="typeC" route="right" depart="45" departLane="0" departSpeed="random"/>
    <vehicle id="B_7" type="typeB" route="right" depart="46" departLane="1" departSpeed="random"/>
    <vehicle id="B_8" type="typeB" route="right" depart="47" departLane="1" departSpeed="random"/>
    <vehicle id="B_9" type="typeB" route="right" depart="48" departLane="1" departSpeed="random"/>
    <vehicle id="B_10" type="typeB" route="right" depart="49" departLane="1" departSpeed="random"/>
    <vehicle id="B_11" type="typeB" route="right" depart="57" departLane="1" departSpeed="random"/>
    <vehicle id="C_9" type="typeC" route="right" depart="59" departLane="0" departSpeed="random"/>
    <vehicle id="C_10" type="typeC" route="right" depart="62" departLane="0" departSpeed="random"/>
    <vehicle id="C_11" type="typeC" route="right" depart="64" departLane="0" departSpeed="random"/>
    <vehicle id="B_12" type="typeB" route="right" depart="66" departLane="1" departSpeed="random"/>
    <vehicle id="B_13" type="typeB" route="right" depart="67" departLane="1" departSpeed="random"/>
    <vehicle id="B_14" type="typeB" route="right" depart="68" departLane="1" departSpeed="random"/>
    <vehicle id="C_12" type="typeC" route="right" depart="68" departLane="0" departSpeed="random"/>
    <vehicle id="B_15" type="typeB" route="right" depart="76" departLane="1" departSpeed="random"/>
    <vehicle id="B_16" type="typeB" route="right" depart="82" departLane="1" departSpeed="random"/>
    <vehicle id="B_17" type="typeB" route="right" depart="83" departLane="1" departSpeed="random"/>
    <vehicle id="C_13" type="typeC" route="right" depart="83" departLane="0" departSpeed="random"/>
    <vehicle id="B_18" type="typeB" route="right" depart="92" departLane="1" departSpeed="random"/>
    <vehicle id="B_19" type="typeB" route="right" depart="99" departLane="1" departSpeed="random"/>
    <vehicle id="B_20" type="typeB" route="right" depart="102" departLane="1" departSpeed="random"/>
    <vehicle id="B_21" type="typeB" route="right" depart="111" departLane="1" departSpeed="random"/>
    <vehicle id="B_22" type="typeB" route="right" depart="112" departLane="1" departSpeed="random"/>
    <vehicle id="B_23" type="typeB" route="right" depart="113" departLane="1" departSpeed="random"/>
    <vehicle id="C_14" type="typeC" route="right" depart="116" departLane="0" departSpeed="random"/>
    <vehicle id="B_24" type="typeB" route="right" depart="118" departLane="1" departSpeed="random"/>
    <vehicle id="C_15" type="typeC" route="right" depart="121" departLane="0" departSpeed="random"/>
    <vehicle id="C_16" type="typeC" route="right" depart="125" departLane="0" departSpeed="random"/>
    <vehicle id="C_17" type="typeC" route="right" depart="126" departLane="0" departSpeed="random"/>
    <vehicle id="B_25" type="typeB" route="right" depart="128" departLane="1" departSpeed="random"/>
    <vehicle id="C_18" type="typeC" route="right" depart="128" departLane="0" departSpeed="random"/>
    <vehicle id="B_26" type="typeB" route="right" depart="129" departLane="1" departSpeed="random"/>
    <vehicle id="C_19" type="typeC" route="right" depart="130" departLane="0" departSpeed="random"/>
    <vehicle id="C_20" type="typeC" route="right" depart="131" departLane="0" departSpeed="random"/>
    <vehicle id="B_27" type="typeB" route="right" depart="133" departLane="1" departSpeed="random"/>
    <vehicle id="C_21" type="typeC" route="right" depart="136" departLane="0" departSpeed="random"/>
    <vehicle id="B_28" type="typeB" route="right" depart="137" departLane="1" departSpeed="random"/>
    <vehicle id="C_22" type="typeC" route="right" depart="138" departLane="0" departSpeed="random"/>
    <vehicle id="B_29" type="typeB" route="right" depart="140" departLane="1" departSpeed="random"/>
    <vehicle id="C_23" type="typeC" route="right" depart="141" departLane="0" departSpeed="random"/>
    <vehicle id="C_24" type="typeC" route="right" depart="143" departLane="0" departSpeed="random"/>
    <vehicle id="C_25" type="typeC" route="right" depart="144" departLane="0" departSpeed="random"/>
    <vehicle id="C_26" type="typeC" route="right" depart="145" departLane="0" departSpeed="random"/>
    <vehicle id="B_30" type="typeB" route="right" depart="152" departLane="1" departSpeed="random"/>
    <vehicle id="C_27" type="typeC" route="right" depart="152" departLane="0" departSpeed="random"/>
    <vehicle id="C_28" type="typeC" route="right" depart="157" departLane="0" departSpeed="random"/>
    <vehicle id="C_29" type="typeC" route="right" depart="165" departLane="0" departSpeed="random"/>
    <vehicle id="C_30" type="typeC" route="right" depart="166" departLane="0" departSpeed="random"/>
    <vehicle id="B_31" type="typeB" route="right" depart="168" departLane="1" departSpeed="random"/>
    <vehicle id="C_31" type="typeC" route="right" depart="168" departLane="0" departSpeed="random"/>
    <vehicle id="C_32" type="typeC" route="right" depart="169" departLane="0" departSpeed="random"/>
    <vehicle id="B_32" type="typeB" route="right" depart="171" departLane="1" departSpeed="random"/>
    <vehicle id="B_33" type="typeB" route="right" depart="173" departLane="1" departSpeed="random"/>
    <vehicle id="C_33" type="typeC" route="right" depart="175" departLane="0" departSpeed="random"/>
    <vehicle id="B_34" type="typeB" route="right" depart="178" departLane="1" departSpeed="random"/>
    <vehicle id="C_34" type="typeC" route="right" depart="180" departLane="0" departSpeed="random"/>
    <vehicle id="B_35" type="typeB" route="right" depart="181" departLane="1" departSpeed="random"/>
    <vehicle id="B_36" type="typeB" route="right" depart="195" departLane="1" departSpeed="random"/>
    <vehicle id="C_35" type="typeC" route="right" depart="203" departLane="0" departSpeed="random"/>
    <vehicle id="C_36" type="typeC" route="right" depart="224" departLane="0" departSpeed="random"/>
    <vehicle id="B_37" type="typeB" route="right" depart="226" departLane="1" departSpeed="random"/>
    <vehicle id="C_37" type="typeC" route="right" depart="226" departLane="0" departSpeed="random"/>
    <vehicle id="B_38" type="typeB" route="right" depart="231" departLane="1" departSpeed="random"/>
    <vehicle id="C_38" type="typeC" route="right" depart="233" departLane="0" departSpeed="random"/>
    <vehicle id="B_39" type="typeB" route="right" depart="241" departLane="1" departSpeed="random"/>
    <vehicle id="C_39" type="typeC" route="right" depart="242" departLane="0" departSpeed="random"/>
    <vehicle id="C_40" type="typeC" route="right" depart="246" departLane="0" departSpeed="random"/>
    <vehicle id="B_40" type="typeB" route="right" depart="247" departLane="1" departSpeed="random"/>
    <vehicle id="C_41" type="typeC" route="right" depart="247" departLane="0" departSpeed="random"/>
    <vehicle id="C_42" type="typeC" route="right" depart="251" departLane="0" departSpeed="random"/>
    <vehicle id="C_43" type="typeC" route="right" depart="252" departLane="0" departSpeed="random"/>
    <vehicle id="B_41" type="typeB" route="right" depart="254" departLane="1" departSpeed="random"/>
    <vehicle id="B_42" type="typeB" route="right" depart="258" departLane="1" departSpeed="random"/>
    <vehicle id="C_44" type="typeC" route="right" depart="265" departLane="0" departSpeed="random"/>
    <vehicle id="B_43" type="typeB" route="right" depart="267" departLane="1" departSpeed="random"/>
    <vehicle id="C_45" type="typeC" route="right" depart="269" departLane="0" departSpeed="random"/>
    <vehicle id="B_44" type="typeB" route="right" depart="271" departLane="1" departSpeed="random"/>
    <vehicle id="B_45" type="typeB" route="right" depart="272" departLane="1" departSpeed="random"/>
    <vehicle id="B_46" type="typeB" route="right" depart="276" departLane="1" departSpeed="random"/>
    <vehicle id="C_46" type="typeC" route="right" depart="280" departLane="0" departSpeed="random"/>
    <vehicle id="B_47" type="typeB" route="right" depart="281" departLane="1" departSpeed="random"/>
    <vehicle id="C_47" type="typeC" route="right" depart="285" departLane="0" departSpeed="random"/>
    <vehicle id="B_48" type="typeB" route="right" depart="287" departLane="1" departSpeed="random"/>
    <vehicle id="C_48" type="typeC" route="right" depart="292" departLane="0" departSpeed="random"/>
    <vehicle id="C_49" type="typeC" route="right" depart="297" departLane="0" departSpeed="random"/>
    <vehicle id="B_49" type="typeB" route="right" depart="303" departLane="1" departSpeed="random"/>
    <vehicle id="C_50" type="typeC" route="right" depart="310" departLane="0" departSpeed="random"/>
    <vehicle id="C_51" type="typeC" route="right" depart="311" departLane="0" departSpeed="random"/>
    <vehicle id="B_50" type="typeB" route="right" depart="316" departLane="1" departSpeed="random"/>
    <vehicle id="C_52" type="typeC" route="right" depart="316" departLane="0" departSpeed="random"/>
    <vehicle id="B_51" type="typeB" route="right" depart="320" departLane="1" departSpeed="random"/>
    <vehicle id="B_52" type="typeB" route="right" depart="321" departLane="1" departSpeed="random"/>
    <vehicle id="C_53" type="typeC" route="right" depart="327" departLane="0" departSpeed="random"/>
    <vehicle id="C_54" type="typeC" route="right" depart="329" departLane="0" departSpeed="random"/>
    <vehicle id="C_55" type="typeC" route="right" depart="331" departLane="0" departSpeed="random"/>
    <vehicle id="B_53" type="typeB" route="right" depart="333" departLane="1" departSpeed="random"/>
    <vehicle id="B_54" type="typeB" route="right" depart="335" departLane="1" departSpeed="random"/>
    <vehicle id="C_56" type="typeC" route="right" depart="337" departLane="0" departSpeed="random"/>
    <vehicle id="B_55" type="typeB" route="right" depart="339" departLane="1" departSpeed="random"/>
    <vehicle id="B_56" type="typeB" route="right" depart="343" departLane="1" departSpeed="random"/>
    <vehicle id="C_57" type="typeC" route="right" depart="343" departLane="0" departSpeed="random"/>
    <vehicle id="B_57" type="typeB" route="right" depart="350" departLane="1" departSpeed="random"/>
    <vehicle id="B_58" type="typeB" route="right" depart="353" departLane="1" departSpeed="random"/>
    <vehicle id="C_58" type="typeC" route="right" depart="353" departLane="0" departSpeed="random"/>
    <vehicle id="C_59" type="typeC" route="right" depart="357" departLane="0" departSpeed="random"/>
    <vehicle id="B_59" type="typeB" route="right" depart="362" departLane="1" departSpeed="random"/>
    <vehicle id="C_60" type="typeC" route="right" depart="366" departLane="0" departSpeed="random"/>
    <vehicle id="B_60" type="typeB" route="right" depart="369" departLane="1" departSpeed="random"/>
    <vehicle id="B_61" type="typeB" route="right" depart="372" departLane="1" departSpeed="random"/>
    <vehicle id="B_62" type="typeB" route="right" depart="375" departLane="1" departSpeed="random"/>
    <vehicle id="B_63" type="typeB" route="right" depart="378" departLane="1" departSpeed="random"/>
    <vehicle id="C_61" type="typeC" route="right" depart="379" departLane="0" departSpeed="random"/>
    <vehicle id="B_64" type="typeB" route="right" depart="381" departLane="1" departSpeed="random"/>
    <vehicle id="B_65" type="typeB" route="right" depart="383" departLane="1" departSpeed="random"/>
    <vehicle id="C_62" type="typeC" route="right" depart="389" departLane="0" departSpeed="random"/>
    <vehicle id="C_63" type="typeC" route="right" depart="391" departLane="0" departSpeed="random"/>
    <vehicle id="B_66" type="typeB" route="right" depart="394" departLane="1" departSpeed="random"/>
    <vehicle id="B_67" type="typeB" route="right" depart="399" departLane="1" departSpeed="random"/>
    <vehicle id="B_68" type="typeB" route="right" depart="400" departLane="1" departSpeed="random"/>
    <vehicle id="B_69" type="typeB" route="right" depart="406" departLane="1" departSpeed="random"/>
    <vehicle id="B_70" type="typeB" route="right" depart="408" departLane="1" departSpeed="random"/>
    <vehicle id="B_71" type="typeB" route="right" depart="412" departLane="1" departSpeed="random"/>
    <vehicle id="B_72" type="typeB" route="right" depart="417" departLane="1" departSpeed="random"/>
    <vehicle id="B_73" type="typeB" route="right" depart="419" departLane="1" departSpeed="random"/>
    <vehicle id="B_74" type="typeB" route="right" depart="421" departLane="1" departSpeed="random"/>
    <vehicle id="C_64" type="typeC" route="right" depart="421" departLane="0" departSpeed="random"/>
    <vehicle id="B_75" type="typeB" route="right" depart="427" departLane="1" departSpeed="random"/>
    <vehicle id="C_65" type="typeC" route="right" depart="429" departLane="0" departSpeed="random"/>
    <vehicle id="C_66" type="typeC" route="right" depart="437" departLane="0" departSpeed="random"/>
    <vehicle id="B_76" type="typeB" route="right" depart="443" departLane="1" departSpeed="random"/>
    <vehicle id="C_67" type="typeC" route="right" depart="447" departLane="0" departSpeed="random"/>
    <vehicle id="C_68" type="typeC" route="right" depart="449" departLane="0" departSpeed="random"/>
    <vehicle id="B_77" type="typeB" route="right" depart="452" departLane="1" departSpeed="random"/>
    <vehicle id="C_69" type="typeC" route="right" depart="452" departLane="0" departSpeed="random"/>
    <vehicle id="C_70" type="typeC" route="right" depart="454" departLane="0" departSpeed="random"/>
    <vehicle id="B_78" type="typeB" route="right" depart="456" departLane="1" departSpeed="random"/>
    <vehicle id="B_79" type="typeB" route="right" depart="465" departLane="1" departSpeed="random"/>
    <vehicle id="C_71" type="typeC" route="right" depart="466" departLane="0" departSpeed="random"/>
    <vehicle id="B_80" type="typeB" route="right" depart="471" departLane="1" departSpeed="random"/>
    <vehicle id="B_81" type="typeB" route="right" depart="472" departLane="1" departSpeed="random"/>
    <vehicle id="C_72" type="typeC" route="right" depart="478" departLane="0" departSpeed="random"/>
    <vehicle id="C_73" type="typeC" route="right" depart="480" departLane="0" departSpeed="random"/>
    <vehicle id="B_82" type="typeB" route="right" depart="490" departLane="1" departSpeed="random"/>
    <vehicle id="C_74" type="typeC" route="right" depart="490" departLane="0" departSpeed="random"/>
    <vehicle id="C_75" type="typeC" route="right" depart="503" departLane="0" departSpeed="random"/>
    <vehicle id="C_76" type="typeC" route="right" depart="505" departLane="0" departSpeed="random"/>
    <vehicle id="B_83" type="typeB" route="right" depart="506" departLane="1" departSpeed="random"/>
    <vehicle id="C_77" type="typeC" route="right" depart="506" departLane="0" departSpeed="random"/>
    <vehicle id="C_78" type="typeC" route="right" depart="509" departLane="0" departSpeed="random"/>
    <vehicle id="C_79" type="typeC" route="right" depart="512" departLane="0" departSpeed="random"/>
    <vehicle id="C_80" type="typeC" route="right" depart="518" departLane="0" departSpeed="random"/>
    <vehicle id="C_81" type="typeC" route="right" depart="519" departLane="0" departSpeed="random"/>
    <vehicle id="B_84" type="typeB" route="right" depart="520" departLane="1" departSpeed="random"/>
    <vehicle id="B_85" type="typeB" route="right" depart="521" departLane="1" departSpeed="random"/>
    <vehicle id="B_86" type="typeB" route="right" depart="522" departLane="1" departSpeed="random"/>
    <vehicle id="B_87" type="typeB" route="right" depart="535" departLane="1" departSpeed="random"/>
    <vehicle id="C_82" type="typeC" route="right" depart="540" departLane="0" departSpeed="random"/>
    <vehicle id="B_88" type="typeB" route="right" depart="542" departLane="1" departSpeed="random"/>
    <vehicle id="C_83" type="typeC" route="right" depart="545" departLane="0" departSpeed="random"/>
    <vehicle id="C_84" type="typeC" route="right" depart="546" departLane="0" departSpeed="random"/>
    <vehicle id="C_85" type="typeC" route="right" depart="550" departLane="0" departSpeed="random"/>
    <vehicle id="B_89" type="typeB" route="right" depart="552" departLane="1" departSpeed="random"/>
    <vehicle id="C_86" type="typeC" route="right" depart="552" departLane="0" departSpeed="random"/>
    <vehicle id="B_90" type="typeB" route="right" depart="557" departLane="1" departSpeed="random"/>
    <vehicle id="B_91" type="typeB" route="right" depart="558" departLane="1" departSpeed="random"/>
    <vehicle id="C_87" type="typeC" route="right" depart="558" departLane="0" departSpeed="random"/>
    <vehicle id="B_92" type="typeB" route="right" depart="568" departLane="1" departSpeed="random"/>
    <vehicle id="B_93" type="typeB" route="right" depart="570" departLane="1" departSpeed="random"/>
    <vehicle id="C_88" type="typeC" route="right" depart="572" departLane="0" departSpeed="random"/>
    <vehicle id="C_89" type="typeC" route="right" depart="577" departLane="0" departSpeed="random"/>
    <vehicle id="C_90" type="typeC" route="right" depart="580" departLane="0" departSpeed="random"/>
    <vehicle id="B_94" type="typeB" route="right" depart="582" departLane="1" departSpeed="random"/>
    <vehicle id="C_91" type="typeC" route="right" depart="583" departLane="0" departSpeed="random"/>
    <vehicle id="B_95" type="typeB" route="right" depart="584" departLane="1" departSpeed="random"/>
    <vehicle id="C_92" type="typeC" route="right" depart="585" departLane="0" departSpeed="random"/>
    <vehicle id="C_93" type="typeC" route="right" depart="590" departLane="0" departSpeed="random"/>
    <vehicle id="C_94" type="typeC" route="right" depart="593" departLane="0" departSpeed="random"/>
    <vehicle id="C_95" type="typeC" route="right" depart="597" departLane="0" departSpeed="random"/>
    <vehicle id="C_96" type="typeC" route="right" depart="598" departLane="0" departSpeed="random"/>
</routes>
