<routes>
        <vType id="typeA" type="passenger" length="5" accel="1.5" decel="2" sigma="0.0" maxSpeed="20" color="yellow"/>
        <vType id="typeB" type="passenger" length="5" accel="1.5" decel="2" sigma="0.0" maxSpeed="20" color="blue"/>
        <vType id="typeC" type="passenger" length="5" accel="1.5" decel="2" sigma="0.0" maxSpeed="20" color="magenta"/>

        <route id="right" edges="E1 E2" />
    <vehicle id="C_1" type="typeC" route="right" depart="0" departLane="0" departSpeed="random"/>
    <vehicle id="B_1" type="typeB" route="right" depart="3" departLane="1" departSpeed="random"/>
    <vehicle id="B_2" type="typeB" route="right" depart="6" departLane="1" departSpeed="random"/>
    <vehicle id="C_2" type="typeC" route="right" depart="6" departLane="0" departSpeed="random"/>
    <vehicle id="C_3" type="typeC" route="right" depart="7" departLane="0" departSpeed="random"/>
    <vehicle id="C_4" type="typeC" route="right" depart="15" departLane="0" departSpeed="random"/>
    <vehicle id="B_3" type="typeB" route="right" depart="19" departLane="1" departSpeed="random"/>
    <vehicle id="C_5" type="typeC" route="right" depart="19" departLane="0" departSpeed="random"/>
    <vehicle id="B_4" type="typeB" route="right" depart="27" departLane="1" departSpeed="random"/>
    <vehicle id="C_6" type="typeC" route="right" depart="32" departLane="0" departSpeed="random"/>
    <vehicle id="B_5" type="typeB" route="right" depart="36" departLane="1" departSpeed="random"/>
    <vehicle id="B_6" type="typeB" route="right" depart="38" departLane="1" departSpeed="random"/>
    <vehicle id="B_7" type="typeB" route="right" depart="46" departLane="1" departSpeed="random"/>
    <vehicle id="C_7" type="typeC" route="right" depart="47" departLane="0" departSpeed="random"/>
    <vehicle id="C_8" type="typeC" route="right" depart="52" departLane="0" departSpeed="random"/>
    <vehicle id="C_9" type="typeC" route="right" depart="53" departLane="0" departSpeed="random"/>
    <vehicle id="B_8" type="typeB" route="right" depart="54" departLane="1" departSpeed="random"/>
    <vehicle id="C_10" type="typeC" route="right" depart="54" departLane="0" departSpeed="random"/>
    <vehicle id="C_11" type="typeC" route="right" depart="58" departLane="0" departSpeed="random"/>
    <vehicle id="B_9" type="typeB" route="right" depart="59" departLane="1" departSpeed="random"/>
    <vehicle id="B_10" type="typeB" route="right" depart="60" departLane="1" departSpeed="random"/>
    <vehicle id="B_11" type="typeB" route="right" depart="61" departLane="1" departSpeed="random"/>
    <vehicle id="B_12" type="typeB" route="right" depart="65" departLane="1" departSpeed="random"/>
    <vehicle id="C_12" type="typeC" route="right" depart="66" departLane="0" departSpeed="random"/>
    <vehicle id="C_13" type="typeC" route="right" depart="67" departLane="0" departSpeed="random"/>
    <vehicle id="B_13" type="typeB" route="right" depart="68" departLane="1" departSpeed="random"/>
    <vehicle id="C_14" type="typeC" route="right" depart="74" departLane="0" departSpeed="random"/>
    <vehicle id="B_14" type="typeB" route="right" depart="76" departLane="1" departSpeed="random"/>
    <vehicle id="C_15" type="typeC" route="right" depart="90" departLane="0" departSpeed="random"/>
    <vehicle id="B_15" type="typeB" route="right" depart="92" departLane="1" departSpeed="random"/>
    <vehicle id="C_16" type="typeC" route="right" depart="100" departLane="0" departSpeed="random"/>
    <vehicle id="C_17" type="typeC" route="right" depart="103" departLane="0" departSpeed="random"/>
    <vehicle id="C_18" type="typeC" route="right" depart="104" departLane="0" departSpeed="random"/>
    <vehicle id="B_16" type="typeB" route="right" depart="108" departLane="1" departSpeed="random"/>
    <vehicle id="B_17" type="typeB" route="right" depart="112" departLane="1" departSpeed="random"/>
    <vehicle id="C_19" type="typeC" route="right" depart="122" departLane="0" departSpeed="random"/>
    <vehicle id="B_18" type="typeB" route="right" depart="123" departLane="1" departSpeed="random"/>
    <vehicle id="C_20" type="typeC" route="right" depart="126" departLane="0" departSpeed="random"/>
    <vehicle id="B_19" type="typeB" route="right" depart="127" departLane="1" departSpeed="random"/>
    <vehicle id="C_21" type="typeC" route="right" depart="127" departLane="0" departSpeed="random"/>
    <vehicle id="C_22" type="typeC" route="right" depart="132" departLane="0" departSpeed="random"/>
    <vehicle id="C_23" type="typeC" route="right" depart="136" departLane="0" departSpeed="random"/>
    <vehicle id="C_24" type="typeC" route="right" depart="141" departLane="0" departSpeed="random"/>
    <vehicle id="B_20" type="typeB" route="right" depart="143" departLane="1" departSpeed="random"/>
    <vehicle id="B_21" type="typeB" route="right" depart="149" departLane="1" departSpeed="random"/>
    <vehicle id="B_22" type="typeB" route="right" depart="153" departLane="1" departSpeed="random"/>
    <vehicle id="C_25" type="typeC" route="right" depart="156" departLane="0" departSpeed="random"/>
    <vehicle id="C_26" type="typeC" route="right" depart="163" departLane="0" departSpeed="random"/>
    <vehicle id="C_27" type="typeC" route="right" depart="167" departLane="0" departSpeed="random"/>
    <vehicle id="C_28" type="typeC" route="right" depart="175" departLane="0" departSpeed="random"/>
    <vehicle id="B_23" type="typeB" route="right" depart="177" departLane="1" departSpeed="random"/>
    <vehicle id="B_24" type="typeB" route="right" depart="178" departLane="1" departSpeed="random"/>
    <vehicle id="C_29" type="typeC" route="right" depart="178" departLane="0" departSpeed="random"/>
    <vehicle id="C_30" type="typeC" route="right" depart="180" departLane="0" departSpeed="random"/>
    <vehicle id="B_25" type="typeB" route="right" depart="182" departLane="1" departSpeed="random"/>
    <vehicle id="C_31" type="typeC" route="right" depart="184" departLane="0" departSpeed="random"/>
    <vehicle id="B_26" type="typeB" route="right" depart="187" departLane="1" departSpeed="random"/>
    <vehicle id="C_32" type="typeC" route="right" depart="189" departLane="0" departSpeed="random"/>
    <vehicle id="C_33" type="typeC" route="right" depart="191" departLane="0" departSpeed="random"/>
    <vehicle id="C_34" type="typeC" route="right" depart="192" departLane="0" departSpeed="random"/>
    <vehicle id="B_27" type="typeB" route="right" depart="193" departLane="1" departSpeed="random"/>
    <vehicle id="B_28" type="typeB" route="right" depart="194" departLane="1" departSpeed="random"/>
    <vehicle id="B_29" type="typeB" route="right" depart="196" departLane="1" departSpeed="random"/>
    <vehicle id="B_30" type="typeB" route="right" depart="199" departLane="1" departSpeed="random"/>
    <vehicle id="C_35" type="typeC" route="right" depart="202" departLane="0" departSpeed="random"/>
    <vehicle id="B_31" type="typeB" route="right" depart="204" departLane="1" departSpeed="random"/>
    <vehicle id="B_32" type="typeB" route="right" depart="213" departLane="1" departSpeed="random"/>
    <vehicle id="C_36" type="typeC" route="right" depart="215" departLane="0" departSpeed="random"/>
    <vehicle id="B_33" type="typeB" route="right" depart="219" departLane="1" departSpeed="random"/>
    <vehicle id="B_34" type="typeB" route="right" depart="221" departLane="1" departSpeed="random"/>
    <vehicle id="B_35" type="typeB" route="right" depart="226" departLane="1" departSpeed="random"/>
    <vehicle id="C_37" type="typeC" route="right" depart="227" departLane="0" departSpeed="random"/>
    <vehicle id="C_38" type="typeC" route="right" depart="238" departLane="0" departSpeed="random"/>
    <vehicle id="C_39" type="typeC" route="right" depart="241" departLane="0" departSpeed="random"/>
    <vehicle id="C_40" type="typeC" route="right" depart="243" departLane="0" departSpeed="random"/>
    <vehicle id="B_36" type="typeB" route="right" depart="244" departLane="1" departSpeed="random"/>
    <vehicle id="C_41" type="typeC" route="right" depart="245" departLane="0" departSpeed="random"/>
    <vehicle id="C_42" type="typeC" route="right" depart="246" departLane="0" departSpeed="random"/>
    <vehicle id="C_43" type="typeC" route="right" depart="249" departLane="0" departSpeed="random"/>
    <vehicle id="B_37" type="typeB" route="right" depart="250" departLane="1" departSpeed="random"/>
    <vehicle id="C_44" type="typeC" route="right" depart="253" departLane="0" departSpeed="random"/>
    <vehicle id="B_38" type="typeB" route="right" depart="254" departLane="1" departSpeed="random"/>
    <vehicle id="C_45" type="typeC" route="right" depart="254" departLane="0" departSpeed="random"/>
    <vehicle id="B_39" type="typeB" route="right" depart="257" departLane="1" departSpeed="random"/>
    <vehicle id="C_46" type="typeC" route="right" depart="260" departLane="0" departSpeed="random"/>
    <vehicle id="B_40" type="typeB" route="right" depart="261" departLane="1" departSpeed="random"/>
    <vehicle id="C_47" type="typeC" route="right" depart="264" departLane="0" departSpeed="random"/>
    <vehicle id="B_41" type="typeB" route="right" depart="265" departLane="1" departSpeed="random"/>
    <vehicle id="B_42" type="typeB" route="right" depart="270" departLane="1" departSpeed="random"/>
    <vehicle id="B_43" type="typeB" route="right" depart="274" departLane="1" departSpeed="random"/>
    <vehicle id="B_44" type="typeB" route="right" depart="275" departLane="1" departSpeed="random"/>
    <vehicle id="B_45" type="typeB" route="right" depart="279" departLane="1" departSpeed="random"/>
    <vehicle id="B_46" type="typeB" route="right" depart="280" departLane="1" departSpeed="random"/>
    <vehicle id="B_47" type="typeB" route="right" depart="287" departLane="1" departSpeed="random"/>
    <vehicle id="B_48" type="typeB" route="right" depart="289" departLane="1" departSpeed="random"/>
    <vehicle id="B_49" type="typeB" route="right" depart="290" departLane="1" departSpeed="random"/>
    <vehicle id="B_50" type="typeB" route="right" depart="292" departLane="1" departSpeed="random"/>
    <vehicle id="B_51" type="typeB" route="right" depart="299" departLane="1" departSpeed="random"/>
    <vehicle id="C_48" type="typeC" route="right" depart="300" departLane="0" departSpeed="random"/>
    <vehicle id="B_52" type="typeB" route="right" depart="301" departLane="1" departSpeed="random"/>
    <vehicle id="B_53" type="typeB" route="right" depart="303" departLane="1" departSpeed="random"/>
    <vehicle id="B_54" type="typeB" route="right" depart="308" departLane="1" departSpeed="random"/>
    <vehicle id="B_55" type="typeB" route="right" depart="310" departLane="1" departSpeed="random"/>
    <vehicle id="C_49" type="typeC" route="right" depart="310" departLane="0" departSpeed="random"/>
    <vehicle id="B_56" type="typeB" route="right" depart="312" departLane="1" departSpeed="random"/>
    <vehicle id="C_50" type="typeC" route="right" depart="315" departLane="0" departSpeed="random"/>
    <vehicle id="B_57" type="typeB" route="right" depart="318" departLane="1" departSpeed="random"/>
    <vehicle id="C_51" type="typeC" route="right" depart="322" departLane="0" departSpeed="random"/>
    <vehicle id="B_58" type="typeB" route="right" depart="328" departLane="1" departSpeed="random"/>
    <vehicle id="B_59" type="typeB" route="right" depart="330" departLane="1" departSpeed="random"/>
    <vehicle id="C_52" type="typeC" route="right" depart="330" departLane="0" departSpeed="random"/>
    <vehicle id="C_53" type="typeC" route="right" depart="334" departLane="0" departSpeed="random"/>
    <vehicle id="B_60" type="typeB" route="right" depart="336" departLane="1" departSpeed="random"/>
    <vehicle id="B_61" type="typeB" route="right" depart="338" departLane="1" departSpeed="random"/>
    <vehicle id="C_54" type="typeC" route="right" depart="338" departLane="0" departSpeed="random"/>
    <vehicle id="B_62" type="typeB" route="right" depart="342" departLane="1" departSpeed="random"/>
    <vehicle id="B_63" type="typeB" route="right" depart="345" departLane="1" departSpeed="random"/>
    <vehicle id="B_64" type="typeB" route="right" depart="347" departLane="1" departSpeed="random"/>
    <vehicle id="B_65" type="typeB" route="right" depart="351" departLane="1" departSpeed="random"/>
    <vehicle id="B_66" type="typeB" route="right" depart="354" departLane="1" departSpeed="random"/>
    <vehicle id="C_55" type="typeC" route="right" depart="356" departLane="0" departSpeed="random"/>
    <vehicle id="C_56" type="typeC" route="right" depart="358" departLane="0" departSpeed="random"/>
    <vehicle id="C_57" type="typeC" route="right" depart="359" departLane="0" departSpeed="random"/>
    <vehicle id="B_67" type="typeB" route="right" depart="363" departLane="1" departSpeed="random"/>
    <vehicle id="B_68" type="typeB" route="right" depart="365" departLane="1" departSpeed="random"/>
    <vehicle id="B_69" type="typeB" route="right" depart="366" departLane="1" departSpeed="random"/>
    <vehicle id="B_70" type="typeB" route="right" depart="369" departLane="1" departSpeed="random"/>
    <vehicle id="C_58" type="typeC" route="right" depart="371" departLane="0" departSpeed="random"/>
    <vehicle id="B_71" type="typeB" route="right" depart="374" departLane="1" departSpeed="random"/>
    <vehicle id="C_59" type="typeC" route="right" depart="374" departLane="0" departSpeed="random"/>
    <vehicle id="B_72" type="typeB" route="right" depart="379" departLane="1" departSpeed="random"/>
    <vehicle id="C_60" type="typeC" route="right" depart="386" departLane="0" departSpeed="random"/>
    <vehicle id="B_73" type="typeB" route="right" depart="387" departLane="1" departSpeed="random"/>
    <vehicle id="C_61" type="typeC" route="right" depart="390" departLane="0" departSpeed="random"/>
    <vehicle id="C_62" type="typeC" route="right" depart="393" departLane="0" departSpeed="random"/>
    <vehicle id="B_74" type="typeB" route="right" depart="396" departLane="1" departSpeed="random"/>
    <vehicle id="C_63" type="typeC" route="right" depart="398" departLane="0" departSpeed="random"/>
    <vehicle id="B_75" type="typeB" route="right" depart="401" departLane="1" departSpeed="random"/>
    <vehicle id="B_76" type="typeB" route="right" depart="407" departLane="1" departSpeed="random"/>
    <vehicle id="C_64" type="typeC" route="right" depart="413" departLane="0" departSpeed="random"/>
    <vehicle id="B_77" type="typeB" route="right" depart="437" departLane="1" departSpeed="random"/>
    <vehicle id="C_65" type="typeC" route="right" depart="437" departLane="0" departSpeed="random"/>
    <vehicle id="C_66" type="typeC" route="right" depart="443" departLane="0" departSpeed="random"/>
    <vehicle id="C_67" type="typeC" route="right" depart="444" departLane="0" departSpeed="random"/>
    <vehicle id="B_78" type="typeB" route="right" depart="446" departLane="1" departSpeed="random"/>
    <vehicle id="C_68" type="typeC" route="right" depart="447" departLane="0" departSpeed="random"/>
    <vehicle id="B_79" type="typeB" route="right" depart="448" departLane="1" departSpeed="random"/>
    <vehicle id="B_80" type="typeB" route="right" depart="452" departLane="1" departSpeed="random"/>
    <vehicle id="B_81" type="typeB" route="right" depart="453" departLane="1" departSpeed="random"/>
    <vehicle id="B_82" type="typeB" route="right" depart="454" departLane="1" departSpeed="random"/>
    <vehicle id="B_83" type="typeB" route="right" depart="459" departLane="1" departSpeed="random"/>
    <vehicle id="B_84" type="typeB" route="right" depart="460" departLane="1" departSpeed="random"/>
    <vehicle id="B_85" type="typeB" route="right" depart="463" departLane="1" departSpeed="random"/>
    <vehicle id="B_86" type="typeB" route="right" depart="464" departLane="1" departSpeed="random"/>
    <vehicle id="C_69" type="typeC" route="right" depart="465" departLane="0" departSpeed="random"/>
    <vehicle id="B_87" type="typeB" route="right" depart="470" departLane="1" departSpeed="random"/>
    <vehicle id="C_70" type="typeC" route="right" depart="470" departLane="0" departSpeed="random"/>
    <vehicle id="C_71" type="typeC" route="right" depart="471" departLane="0" departSpeed="random"/>
    <vehicle id="B_88" type="typeB" route="right" depart="473" departLane="1" departSpeed="random"/>
    <vehicle id="C_72" type="typeC" route="right" depart="473" departLane="0" departSpeed="random"/>
    <vehicle id="B_89" type="typeB" route="right" depart="474" departLane="1" departSpeed="random"/>
    <vehicle id="C_73" type="typeC" route="right" depart="474" departLane="0" departSpeed="random"/>
    <vehicle id="B_90" type="typeB" route="right" depart="475" departLane="1" departSpeed="random"/>
    <vehicle id="C_74" type="typeC" route="right" depart="478" departLane="0" departSpeed="random"/>
    <vehicle id="C_75" type="typeC" route="right" depart="489" departLane="0" departSpeed="random"/>
    <vehicle id="B_91" type="typeB" route="right" depart="493" departLane="1" departSpeed="random"/>
    <vehicle id="C_76" type="typeC" route="right" depart="493" departLane="0" departSpeed="random"/>
    <vehicle id="B_92" type="typeB" route="right" depart="496" departLane="1" departSpeed="random"/>
    <vehicle id="B_93" type="typeB" route="right" depart="498" departLane="1" departSpeed="random"/>
    <vehicle id="B_94" type="typeB" route="right" depart="500" departLane="1" departSpeed="random"/>
    <vehicle id="B_95" type="typeB" route="right" depart="504" departLane="1" departSpeed="random"/>
    <vehicle id="B_96" type="typeB" route="right" depart="507" departLane="1" departSpeed="random"/>
    <vehicle id="B_97" type="typeB" route="right" depart="511" departLane="1" departSpeed="random"/>
    <vehicle id="C_77" type="typeC" route="right" depart="515" departLane="0" departSpeed="random"/>
    <vehicle id="C_78" type="typeC" route="right" depart="524" departLane="0" departSpeed="random"/>
    <vehicle id="B_98" type="typeB" route="right" depart="525" departLane="1" departSpeed="random"/>
    <vehicle id="B_99" type="typeB" route="right" depart="531" departLane="1" departSpeed="random"/>
    <vehicle id="B_100" type="typeB" route="right" depart="532" departLane="1" departSpeed="random"/>
    <vehicle id="B_101" type="typeB" route="right" depart="535" departLane="1" departSpeed="random"/>
    <vehicle id="C_79" type="typeC" route="right" depart="535" departLane="0" departSpeed="random"/>
    <vehicle id="B_102" type="typeB" route="right" depart="537" departLane="1" departSpeed="random"/>
    <vehicle id="C_80" type="typeC" route="right" depart="540" departLane="0" departSpeed="random"/>
    <vehicle id="C_81" type="typeC" route="right" depart="543" departLane="0" departSpeed="random"/>
    <vehicle id="C_82" type="typeC" route="right" depart="545" departLane="0" departSpeed="random"/>
    <vehicle id="C_83" type="typeC" route="right" depart="548" departLane="0" departSpeed="random"/>
    <vehicle id="C_84" type="typeC" route="right" depart="549" departLane="0" departSpeed="random"/>
    <vehicle id="B_103" type="typeB" route="right" depart="561" departLane="1" departSpeed="random"/>
    <vehicle id="B_104" type="typeB" route="right" depart="568" departLane="1" departSpeed="random"/>
    <vehicle id="C_85" type="typeC" route="right" depart="570" departLane="0" departSpeed="random"/>
    <vehicle id="C_86" type="typeC" route="right" depart="574" departLane="0" departSpeed="random"/>
    <vehicle id="B_105" type="typeB" route="right" depart="577" departLane="1" departSpeed="random"/>
    <vehicle id="C_87" type="typeC" route="right" depart="583" departLane="0" departSpeed="random"/>
    <vehicle id="B_106" type="typeB" route="right" depart="586" departLane="1" departSpeed="random"/>
    <vehicle id="C_88" type="typeC" route="right" depart="586" departLane="0" departSpeed="random"/>
    <vehicle id="B_107" type="typeB" route="right" depart="590" departLane="1" departSpeed="random"/>
    <vehicle id="C_89" type="typeC" route="right" depart="590" departLane="0" departSpeed="random"/>
    <vehicle id="C_90" type="typeC" route="right" depart="592" departLane="0" departSpeed="random"/>
    <vehicle id="C_91" type="typeC" route="right" depart="595" departLane="0" departSpeed="random"/>
    <vehicle id="B_108" type="typeB" route="right" depart="597" departLane="1" departSpeed="random"/>
    <vehicle id="C_92" type="typeC" route="right" depart="597" departLane="0" departSpeed="random"/>
    <vehicle id="C_93" type="typeC" route="right" depart="598" departLane="0" departSpeed="random"/>
</routes>
