<routes>
        <vType id="typeA" type="passenger" length="5" accel="1.5" decel="2" sigma="0.0" maxSpeed="20" color="yellow"/>
        <vType id="typeB" type="passenger" length="5" accel="1.5" decel="2" sigma="0.0" maxSpeed="20" color="blue"/>
        <vType id="typeC" type="passenger" length="5" accel="1.5" decel="2" sigma="0.0" maxSpeed="20" color="magenta"/>

        <route id="right" edges="E1 E2" />
    <vehicle id="C_1" type="typeC" route="right" depart="5" departLane="0" departSpeed="random"/>
    <vehicle id="C_2" type="typeC" route="right" depart="7" departLane="0" departSpeed="random"/>
    <vehicle id="B_1" type="typeB" route="right" depart="9" departLane="1" departSpeed="random"/>
    <vehicle id="B_2" type="typeB" route="right" depart="11" departLane="1" departSpeed="random"/>
    <vehicle id="B_3" type="typeB" route="right" depart="12" departLane="1" departSpeed="random"/>
    <vehicle id="C_3" type="typeC" route="right" depart="12" departLane="0" departSpeed="random"/>
    <vehicle id="B_4" type="typeB" route="right" depart="15" departLane="1" departSpeed="random"/>
    <vehicle id="C_4" type="typeC" route="right" depart="16" departLane="0" departSpeed="random"/>
    <vehicle id="C_5" type="typeC" route="right" depart="17" departLane="0" departSpeed="random"/>
    <vehicle id="B_5" type="typeB" route="right" depart="19" departLane="1" departSpeed="random"/>
    <vehicle id="B_6" type="typeB" route="right" depart="21" departLane="1" departSpeed="random"/>
    <vehicle id="C_6" type="typeC" route="right" depart="23" departLane="0" departSpeed="random"/>
    <vehicle id="B_7" type="typeB" route="right" depart="24" departLane="1" departSpeed="random"/>
    <vehicle id="B_8" type="typeB" route="right" depart="29" departLane="1" departSpeed="random"/>
    <vehicle id="C_7" type="typeC" route="right" depart="32" departLane="0" departSpeed="random"/>
    <vehicle id="B_9" type="typeB" route="right" depart="34" departLane="1" departSpeed="random"/>
    <vehicle id="C_8" type="typeC" route="right" depart="36" departLane="0" departSpeed="random"/>
    <vehicle id="C_9" type="typeC" route="right" depart="37" departLane="0" departSpeed="random"/>
    <vehicle id="B_10" type="typeB" route="right" depart="39" departLane="1" departSpeed="random"/>
    <vehicle id="C_10" type="typeC" route="right" depart="41" departLane="0" departSpeed="random"/>
    <vehicle id="C_11" type="typeC" route="right" depart="43" departLane="0" departSpeed="random"/>
    <vehicle id="C_12" type="typeC" route="right" depart="50" departLane="0" departSpeed="random"/>
    <vehicle id="C_13" type="typeC" route="right" depart="56" departLane="0" departSpeed="random"/>
    <vehicle id="B_11" type="typeB" route="right" depart="63" departLane="1" departSpeed="random"/>
    <vehicle id="C_14" type="typeC" route="right" depart="65" departLane="0" departSpeed="random"/>
    <vehicle id="C_15" type="typeC" route="right" depart="67" departLane="0" departSpeed="random"/>
    <vehicle id="C_16" type="typeC" route="right" depart="71" departLane="0" departSpeed="random"/>
    <vehicle id="C_17" type="typeC" route="right" depart="73" departLane="0" departSpeed="random"/>
    <vehicle id="B_12" type="typeB" route="right" depart="75" departLane="1" departSpeed="random"/>
    <vehicle id="C_18" type="typeC" route="right" depart="75" departLane="0" departSpeed="random"/>
    <vehicle id="B_13" type="typeB" route="right" depart="76" departLane="1" departSpeed="random"/>
    <vehicle id="B_14" type="typeB" route="right" depart="84" departLane="1" departSpeed="random"/>
    <vehicle id="C_19" type="typeC" route="right" depart="87" departLane="0" departSpeed="random"/>
    <vehicle id="B_15" type="typeB" route="right" depart="90" departLane="1" departSpeed="random"/>
    <vehicle id="B_16" type="typeB" route="right" depart="95" departLane="1" departSpeed="random"/>
    <vehicle id="C_20" type="typeC" route="right" depart="98" departLane="0" departSpeed="random"/>
    <vehicle id="C_21" type="typeC" route="right" depart="99" departLane="0" departSpeed="random"/>
    <vehicle id="C_22" type="typeC" route="right" depart="104" departLane="0" departSpeed="random"/>
    <vehicle id="B_17" type="typeB" route="right" depart="110" departLane="1" departSpeed="random"/>
    <vehicle id="C_23" type="typeC" route="right" depart="111" departLane="0" departSpeed="random"/>
    <vehicle id="C_24" type="typeC" route="right" depart="121" departLane="0" departSpeed="random"/>
    <vehicle id="C_25" type="typeC" route="right" depart="123" departLane="0" departSpeed="random"/>
    <vehicle id="C_26" type="typeC" route="right" depart="124" departLane="0" departSpeed="random"/>
    <vehicle id="B_18" type="typeB" route="right" depart="127" departLane="1" departSpeed="random"/>
    <vehicle id="B_19" type="typeB" route="right" depart="128" departLane="1" departSpeed="random"/>
    <vehicle id="B_20" type="typeB" route="right" depart="133" departLane="1" departSpeed="random"/>
    <vehicle id="B_21" type="typeB" route="right" depart="134" departLane="1" departSpeed="random"/>
    <vehicle id="B_22" type="typeB" route="right" depart="135" departLane="1" departSpeed="random"/>
    <vehicle id="C_27" type="typeC" route="right" depart="142" departLane="0" departSpeed="random"/>
    <vehicle id="B_23" type="typeB" route="right" depart="143" departLane="1" departSpeed="random"/>
    <vehicle id="C_28" type="typeC" route="right" depart="143" departLane="0" departSpeed="random"/>
    <vehicle id="B_24" type="typeB" route="right" depart="144" departLane="1" departSpeed="random"/>
    <vehicle id="B_25" type="typeB" route="right" depart="146" departLane="1" departSpeed="random"/>
    <vehicle id="C_29" type="typeC" route="right" depart="147" departLane="0" departSpeed="random"/>
    <vehicle id="B_26" type="typeB" route="right" depart="151" departLane="1" departSpeed="random"/>
    <vehicle id="B_27" type="typeB" route="right" depart="155" departLane="1" departSpeed="random"/>
    <vehicle id="C_30" type="typeC" route="right" depart="158" departLane="0" departSpeed="random"/>
    <vehicle id="C_31" type="typeC" route="right" depart="161" departLane="0" departSpeed="random"/>
    <vehicle id="C_32" type="typeC" route="right" depart="162" departLane="0" departSpeed="random"/>
    <vehicle id="C_33" type="typeC" route="right" depart="166" departLane="0" departSpeed="random"/>
    <vehicle id="B_28" type="typeB" route="right" depart="167" departLane="1" departSpeed="random"/>
    <vehicle id="B_29" type="typeB" route="right" depart="169" departLane="1" departSpeed="random"/>
    <vehicle id="C_34" type="typeC" route="right" depart="169" departLane="0" departSpeed="random"/>
    <vehicle id="C_35" type="typeC" route="right" depart="172" departLane="0" departSpeed="random"/>
    <vehicle id="B_30" type="typeB" route="right" depart="175" departLane="1" departSpeed="random"/>
    <vehicle id="C_36" type="typeC" route="right" depart="175" departLane="0" departSpeed="random"/>
    <vehicle id="B_31" type="typeB" route="right" depart="179" departLane="1" departSpeed="random"/>
    <vehicle id="C_37" type="typeC" route="right" depart="180" departLane="0" departSpeed="random"/>
    <vehicle id="B_32" type="typeB" route="right" depart="181" departLane="1" departSpeed="random"/>
    <vehicle id="C_38" type="typeC" route="right" depart="181" departLane="0" departSpeed="random"/>
    <vehicle id="B_33" type="typeB" route="right" depart="185" departLane="1" departSpeed="random"/>
    <vehicle id="B_34" type="typeB" route="right" depart="191" departLane="1" departSpeed="random"/>
    <vehicle id="C_39" type="typeC" route="right" depart="191" departLane="0" departSpeed="random"/>
    <vehicle id="B_35" type="typeB" route="right" depart="194" departLane="1" departSpeed="random"/>
    <vehicle id="B_36" type="typeB" route="right" depart="195" departLane="1" departSpeed="random"/>
    <vehicle id="B_37" type="typeB" route="right" depart="196" departLane="1" departSpeed="random"/>
    <vehicle id="B_38" type="typeB" route="right" depart="197" departLane="1" departSpeed="random"/>
    <vehicle id="C_40" type="typeC" route="right" depart="199" departLane="0" departSpeed="random"/>
    <vehicle id="C_41" type="typeC" route="right" depart="208" departLane="0" departSpeed="random"/>
    <vehicle id="B_39" type="typeB" route="right" depart="209" departLane="1" departSpeed="random"/>
    <vehicle id="C_42" type="typeC" route="right" depart="209" departLane="0" departSpeed="random"/>
    <vehicle id="B_40" type="typeB" route="right" depart="219" departLane="1" departSpeed="random"/>
    <vehicle id="C_43" type="typeC" route="right" depart="220" departLane="0" departSpeed="random"/>
    <vehicle id="B_41" type="typeB" route="right" depart="230" departLane="1" departSpeed="random"/>
    <vehicle id="C_44" type="typeC" route="right" depart="230" departLane="0" departSpeed="random"/>
    <vehicle id="B_42" type="typeB" route="right" depart="234" departLane="1" departSpeed="random"/>
    <vehicle id="B_43" type="typeB" route="right" depart="237" departLane="1" departSpeed="random"/>
    <vehicle id="B_44" type="typeB" route="right" depart="238" departLane="1" departSpeed="random"/>
    <vehicle id="B_45" type="typeB" route="right" depart="241" departLane="1" departSpeed="random"/>
    <vehicle id="B_46" type="typeB" route="right" depart="245" departLane="1" departSpeed="random"/>
    <vehicle id="B_47" type="typeB" route="right" depart="247" departLane="1" departSpeed="random"/>
    <vehicle id="C_45" type="typeC" route="right" depart="248" departLane="0" departSpeed="random"/>
    <vehicle id="C_46" type="typeC" route="right" depart="250" departLane="0" departSpeed="random"/>
    <vehicle id="B_48" type="typeB" route="right" depart="252" departLane="1" departSpeed="random"/>
    <vehicle id="C_47" type="typeC" route="right" depart="253" departLane="0" departSpeed="random"/>
    <vehicle id="C_48" type="typeC" route="right" depart="258" departLane="0" departSpeed="random"/>
    <vehicle id="B_49" type="typeB" route="right" depart="259" departLane="1" departSpeed="random"/>
    <vehicle id="C_49" type="typeC" route="right" depart="262" departLane="0" departSpeed="random"/>
    <vehicle id="C_50" type="typeC" route="right" depart="263" departLane="0" departSpeed="random"/>
    <vehicle id="B_50" type="typeB" route="right" depart="266" departLane="1" departSpeed="random"/>
    <vehicle id="C_51" type="typeC" route="right" depart="270" departLane="0" departSpeed="random"/>
    <vehicle id="C_52" type="typeC" route="right" depart="272" departLane="0" departSpeed="random"/>
    <vehicle id="B_51" type="typeB" route="right" depart="273" departLane="1" departSpeed="random"/>
    <vehicle id="C_53" type="typeC" route="right" depart="273" departLane="0" departSpeed="random"/>
    <vehicle id="C_54" type="typeC" route="right" depart="274" departLane="0" departSpeed="random"/>
    <vehicle id="B_52" type="typeB" route="right" depart="278" departLane="1" departSpeed="random"/>
    <vehicle id="C_55" type="typeC" route="right" depart="280" departLane="0" departSpeed="random"/>
    <vehicle id="B_53" type="typeB" route="right" depart="281" departLane="1" departSpeed="random"/>
    <vehicle id="B_54" type="typeB" route="right" depart="283" departLane="1" departSpeed="random"/>
    <vehicle id="C_56" type="typeC" route="right" depart="285" departLane="0" departSpeed="random"/>
    <vehicle id="C_57" type="typeC" route="right" depart="286" departLane="0" departSpeed="random"/>
    <vehicle id="B_55" type="typeB" route="right" depart="291" departLane="1" departSpeed="random"/>
    <vehicle id="C_58" type="typeC" route="right" depart="292" departLane="0" departSpeed="random"/>
    <vehicle id="C_59" type="typeC" route="right" depart="293" departLane="0" departSpeed="random"/>
    <vehicle id="B_56" type="typeB" route="right" depart="295" departLane="1" departSpeed="random"/>
    <vehicle id="C_60" type="typeC" route="right" depart="299" departLane="0" departSpeed="random"/>
    <vehicle id="B_57" type="typeB" route="right" depart="305" departLane="1" departSpeed="random"/>
    <vehicle id="C_61" type="typeC" route="right" depart="309" departLane="0" departSpeed="random"/>
    <vehicle id="B_58" type="typeB" route="right" depart="314" departLane="1" departSpeed="random"/>
    <vehicle id="C_62" type="typeC" route="right" depart="322" departLane="0" departSpeed="random"/>
    <vehicle id="C_63" type="typeC" route="right" depart="325" departLane="0" departSpeed="random"/>
    <vehicle id="C_64" type="typeC" route="right" depart="328" departLane="0" departSpeed="random"/>
    <vehicle id="C_65" type="typeC" route="right" depart="330" departLane="0" departSpeed="random"/>
    <vehicle id="C_66" type="typeC" route="right" depart="331" departLane="0" departSpeed="random"/>
    <vehicle id="B_59" type="typeB" route="right" depart="337" departLane="1" departSpeed="random"/>
    <vehicle id="C_67" type="typeC" route="right" depart="339" departLane="0" departSpeed="random"/>
    <vehicle id="B_60" type="typeB" route="right" depart="340" departLane="1" departSpeed="random"/>
    <vehicle id="C_68" type="typeC" route="right" depart="340" departLane="0" departSpeed="random"/>
    <vehicle id="B_61" type="typeB" route="right" depart="347" departLane="1" departSpeed="random"/>
    <vehicle id="C_69" type="typeC" route="right" depart="347" departLane="0" departSpeed="random"/>
    <vehicle id="B_62" type="typeB" route="right" depart="352" departLane="1" departSpeed="random"/>
    <vehicle id="B_63" type="typeB" route="right" depart="356" departLane="1" departSpeed="random"/>
    <vehicle id="B_64" type="typeB" route="right" depart="357" departLane="1" departSpeed="random"/>
    <vehicle id="C_70" type="typeC" route="right" depart="358" departLane="0" departSpeed="random"/>
    <vehicle id="B_65" type="typeB" route="right" depart="360" departLane="1" departSpeed="random"/>
    <vehicle id="C_71" type="typeC" route="right" depart="362" departLane="0" departSpeed="random"/>
    <vehicle id="B_66" type="typeB" route="right" depart="365" departLane="1" departSpeed="random"/>
    <vehicle id="B_67" type="typeB" route="right" depart="366" departLane="1" departSpeed="random"/>
    <vehicle id="B_68" type="typeB" route="right" depart="367" departLane="1" departSpeed="random"/>
    <vehicle id="C_72" type="typeC" route="right" depart="370" departLane="0" departSpeed="random"/>
    <vehicle id="C_73" type="typeC" route="right" depart="371" departLane="0" departSpeed="random"/>
    <vehicle id="B_69" type="typeB" route="right" depart="376" departLane="1" departSpeed="random"/>
    <vehicle id="B_70" type="typeB" route="right" depart="380" departLane="1" departSpeed="random"/>
    <vehicle id="B_71" type="typeB" route="right" depart="385" departLane="1" departSpeed="random"/>
    <vehicle id="B_72" type="typeB" route="right" depart="386" departLane="1" departSpeed="random"/>
    <vehicle id="C_74" type="typeC" route="right" depart="386" departLane="0" departSpeed="random"/>
    <vehicle id="C_75" type="typeC" route="right" depart="389" departLane="0" departSpeed="random"/>
    <vehicle id="B_73" type="typeB" route="right" depart="395" departLane="1" departSpeed="random"/>
    <vehicle id="C_76" type="typeC" route="right" depart="405" departLane="0" departSpeed="random"/>
    <vehicle id="C_77" type="typeC" route="right" depart="408" departLane="0" departSpeed="random"/>
    <vehicle id="B_74" type="typeB" route="right" depart="413" departLane="1" departSpeed="random"/>
    <vehicle id="C_78" type="typeC" route="right" depart="415" departLane="0" departSpeed="random"/>
    <vehicle id="C_79" type="typeC" route="right" depart="416" departLane="0" departSpeed="random"/>
    <vehicle id="C_80" type="typeC" route="right" depart="417" departLane="0" departSpeed="random"/>
    <vehicle id="B_75" type="typeB" route="right" depart="426" departLane="1" departSpeed="random"/>
    <vehicle id="B_76" type="typeB" route="right" depart="427" departLane="1" departSpeed="random"/>
    <vehicle id="C_81" type="typeC" route="right" depart="427" departLane="0" departSpeed="random"/>
    <vehicle id="B_77" type="typeB" route="right" depart="435" departLane="1" departSpeed="random"/>
    <vehicle id="C_82" type="typeC" route="right" depart="439" departLane="0" departSpeed="random"/>
    <vehicle id="B_78" type="typeB" route="right" depart="443" departLane="1" departSpeed="random"/>
    <vehicle id="C_83" type="typeC" route="right" depart="444" departLane="0" departSpeed="random"/>
    <vehicle id="B_79" type="typeB" route="right" depart="445" departLane="1" departSpeed="random"/>
    <vehicle id="C_84" type="typeC" route="right" depart="448" departLane="0" departSpeed="random"/>
    <vehicle id="B_80" type="typeB" route="right" depart="449" departLane="1" departSpeed="random"/>
    <vehicle id="B_81" type="typeB" route="right" depart="451" departLane="1" departSpeed="random"/>
    <vehicle id="C_85" type="typeC" route="right" depart="452" departLane="0" departSpeed="random"/>
    <vehicle id="B_82" type="typeB" route="right" depart="463" departLane="1" departSpeed="random"/>
    <vehicle id="C_86" type="typeC" route="right" depart="463" departLane="0" departSpeed="random"/>
    <vehicle id="B_83" type="typeB" route="right" depart="468" departLane="1" departSpeed="random"/>
    <vehicle id="B_84" type="typeB" route="right" depart="469" departLane="1" departSpeed="random"/>
    <vehicle id="B_85" type="typeB" route="right" depart="472" departLane="1" departSpeed="random"/>
    <vehicle id="C_87" type="typeC" route="right" depart="472" departLane="0" departSpeed="random"/>
    <vehicle id="B_86" type="typeB" route="right" depart="474" departLane="1" departSpeed="random"/>
    <vehicle id="C_88" type="typeC" route="right" depart="481" departLane="0" departSpeed="random"/>
    <vehicle id="B_87" type="typeB" route="right" depart="483" departLane="1" departSpeed="random"/>
    <vehicle id="B_88" type="typeB" route="right" depart="487" departLane="1" departSpeed="random"/>
    <vehicle id="B_89" type="typeB" route="right" depart="488" departLane="1" departSpeed="random"/>
    <vehicle id="C_89" type="typeC" route="right" depart="489" departLane="0" departSpeed="random"/>
    <vehicle id="B_90" type="typeB" route="right" depart="490" departLane="1" departSpeed="random"/>
    <vehicle id="C_90" type="typeC" route="right" depart="493" departLane="0" departSpeed="random"/>
    <vehicle id="C_91" type="typeC" route="right" depart="499" departLane="0" departSpeed="random"/>
    <vehicle id="B_91" type="typeB" route="right" depart="500" departLane="1" departSpeed="random"/>
    <vehicle id="C_92" type="typeC" route="right" depart="500" departLane="0" departSpeed="random"/>
    <vehicle id="C_93" type="typeC" route="right" depart="506" departLane="0" departSpeed="random"/>
    <vehicle id="B_92" type="typeB" route="right" depart="507" departLane="1" departSpeed="random"/>
    <vehicle id="B_93" type="typeB" route="right" depart="508" departLane="1" departSpeed="random"/>
    <vehicle id="C_94" type="typeC" route="right" depart="508" departLane="0" departSpeed="random"/>
    <vehicle id="B_94" type="typeB" route="right" depart="509" departLane="1" departSpeed="random"/>
    <vehicle id="C_95" type="typeC" route="right" depart="509" departLane="0" departSpeed="random"/>
    <vehicle id="B_95" type="typeB" route="right" depart="511" departLane="1" departSpeed="random"/>
    <vehicle id="B_96" type="typeB" route="right" depart="516" departLane="1" departSpeed="random"/>
    <vehicle id="C_96" type="typeC" route="right" depart="519" departLane="0" departSpeed="random"/>
    <vehicle id="B_97" type="typeB" route="right" depart="522" departLane="1" departSpeed="random"/>
    <vehicle id="B_98" type="typeB" route="right" depart="525" departLane="1" departSpeed="random"/>
    <vehicle id="B_99" type="typeB" route="right" depart="526" departLane="1" departSpeed="random"/>
    <vehicle id="C_97" type="typeC" route="right" depart="533" departLane="0" departSpeed="random"/>
    <vehicle id="B_100" type="typeB" route="right" depart="542" departLane="1" departSpeed="random"/>
    <vehicle id="B_101" type="typeB" route="right" depart="546" departLane="1" departSpeed="random"/>
    <vehicle id="C_98" type="typeC" route="right" depart="546" departLane="0" departSpeed="random"/>
    <vehicle id="B_102" type="typeB" route="right" depart="548" departLane="1" departSpeed="random"/>
    <vehicle id="C_99" type="typeC" route="right" depart="553" departLane="0" departSpeed="random"/>
    <vehicle id="C_100" type="typeC" route="right" depart="554" departLane="0" departSpeed="random"/>
    <vehicle id="C_101" type="typeC" route="right" depart="556" departLane="0" departSpeed="random"/>
    <vehicle id="B_103" type="typeB" route="right" depart="557" departLane="1" departSpeed="random"/>
    <vehicle id="B_104" type="typeB" route="right" depart="558" departLane="1" departSpeed="random"/>
    <vehicle id="C_102" type="typeC" route="right" depart="561" departLane="0" departSpeed="random"/>
    <vehicle id="C_103" type="typeC" route="right" depart="571" departLane="0" departSpeed="random"/>
    <vehicle id="C_104" type="typeC" route="right" depart="577" departLane="0" departSpeed="random"/>
    <vehicle id="B_105" type="typeB" route="right" depart="584" departLane="1" departSpeed="random"/>
    <vehicle id="B_106" type="typeB" route="right" depart="585" departLane="1" departSpeed="random"/>
    <vehicle id="C_105" type="typeC" route="right" depart="585" departLane="0" departSpeed="random"/>
    <vehicle id="C_106" type="typeC" route="right" depart="587" departLane="0" departSpeed="random"/>
    <vehicle id="B_107" type="typeB" route="right" depart="588" departLane="1" departSpeed="random"/>
    <vehicle id="C_107" type="typeC" route="right" depart="588" departLane="0" departSpeed="random"/>
    <vehicle id="B_108" type="typeB" route="right" depart="594" departLane="1" departSpeed="random"/>
    <vehicle id="C_108" type="typeC" route="right" depart="596" departLane="0" departSpeed="random"/>
    <vehicle id="B_109" type="typeB" route="right" depart="598" departLane="1" departSpeed="random"/>
    <vehicle id="C_109" type="typeC" route="right" depart="598" departLane="0" departSpeed="random"/>
</routes>
