<configuration>
    <input>
        <net-file value="../../sumo_data/laneMerging4.net.xml"/>
        <route-files value="1.rou.xml"/>
        <additional-files value="../../sumo_data/laneMerging4.add.xml"/>
        <gui-settings-file value="../../sumo_data/laneMerging.view.xml"/>
    </input>
</configuration>
