<routes>
        <vType id="typeA" type="passenger" length="5" accel="1.5" decel="2" sigma="0.0" maxSpeed="20" color="yellow"/>
        <vType id="typeB" type="passenger" length="5" accel="1.5" decel="2" sigma="0.0" maxSpeed="20" color="blue"/>

        <route id="right" edges="E1 E2" />
    <vehicle id="A_1" type="typeA" route="right" depart="1" departLane="1" departSpeed="random"/>
    <vehicle id="B_1" type="typeB" route="right" depart="1" departLane="0" departSpeed="random"/>
    <vehicle id="B_2" type="typeB" route="right" depart="3" departLane="0" departSpeed="random"/>
    <vehicle id="B_3" type="typeB" route="right" depart="4" departLane="0" departSpeed="random"/>
    <vehicle id="A_2" type="typeA" route="right" depart="7" departLane="1" departSpeed="random"/>
    <vehicle id="B_4" type="typeB" route="right" depart="11" departLane="0" departSpeed="random"/>
    <vehicle id="A_3" type="typeA" route="right" depart="12" departLane="1" departSpeed="random"/>
    <vehicle id="B_5" type="typeB" route="right" depart="13" departLane="0" departSpeed="random"/>
    <vehicle id="A_4" type="typeA" route="right" depart="14" departLane="1" departSpeed="random"/>
    <vehicle id="B_6" type="typeB" route="right" depart="15" departLane="0" departSpeed="random"/>
    <vehicle id="A_5" type="typeA" route="right" depart="17" departLane="1" departSpeed="random"/>
    <vehicle id="A_6" type="typeA" route="right" depart="20" departLane="1" departSpeed="random"/>
    <vehicle id="A_7" type="typeA" route="right" depart="21" departLane="1" departSpeed="random"/>
    <vehicle id="B_7" type="typeB" route="right" depart="23" departLane="0" departSpeed="random"/>
    <vehicle id="A_8" type="typeA" route="right" depart="27" departLane="1" departSpeed="random"/>
    <vehicle id="A_9" type="typeA" route="right" depart="33" departLane="1" departSpeed="random"/>
    <vehicle id="B_8" type="typeB" route="right" depart="34" departLane="0" departSpeed="random"/>
    <vehicle id="A_10" type="typeA" route="right" depart="35" departLane="1" departSpeed="random"/>
    <vehicle id="A_11" type="typeA" route="right" depart="37" departLane="1" departSpeed="random"/>
    <vehicle id="A_12" type="typeA" route="right" depart="48" departLane="1" departSpeed="random"/>
    <vehicle id="B_9" type="typeB" route="right" depart="48" departLane="0" departSpeed="random"/>
    <vehicle id="A_13" type="typeA" route="right" depart="56" departLane="1" departSpeed="random"/>
    <vehicle id="B_10" type="typeB" route="right" depart="57" departLane="0" departSpeed="random"/>
    <vehicle id="A_14" type="typeA" route="right" depart="59" departLane="1" departSpeed="random"/>
    <vehicle id="A_15" type="typeA" route="right" depart="60" departLane="1" departSpeed="random"/>
    <vehicle id="A_16" type="typeA" route="right" depart="61" departLane="1" departSpeed="random"/>
    <vehicle id="B_11" type="typeB" route="right" depart="62" departLane="0" departSpeed="random"/>
    <vehicle id="A_17" type="typeA" route="right" depart="63" departLane="1" departSpeed="random"/>
    <vehicle id="A_18" type="typeA" route="right" depart="67" departLane="1" departSpeed="random"/>
    <vehicle id="B_12" type="typeB" route="right" depart="72" departLane="0" departSpeed="random"/>
    <vehicle id="A_19" type="typeA" route="right" depart="73" departLane="1" departSpeed="random"/>
    <vehicle id="B_13" type="typeB" route="right" depart="73" departLane="0" departSpeed="random"/>
    <vehicle id="A_20" type="typeA" route="right" depart="80" departLane="1" departSpeed="random"/>
    <vehicle id="B_14" type="typeB" route="right" depart="81" departLane="0" departSpeed="random"/>
    <vehicle id="B_15" type="typeB" route="right" depart="82" departLane="0" departSpeed="random"/>
    <vehicle id="A_21" type="typeA" route="right" depart="83" departLane="1" departSpeed="random"/>
    <vehicle id="B_16" type="typeB" route="right" depart="83" departLane="0" departSpeed="random"/>
    <vehicle id="B_17" type="typeB" route="right" depart="85" departLane="0" departSpeed="random"/>
    <vehicle id="A_22" type="typeA" route="right" depart="90" departLane="1" departSpeed="random"/>
    <vehicle id="B_18" type="typeB" route="right" depart="90" departLane="0" departSpeed="random"/>
    <vehicle id="A_23" type="typeA" route="right" depart="92" departLane="1" departSpeed="random"/>
    <vehicle id="A_24" type="typeA" route="right" depart="94" departLane="1" departSpeed="random"/>
    <vehicle id="A_25" type="typeA" route="right" depart="95" departLane="1" departSpeed="random"/>
    <vehicle id="B_19" type="typeB" route="right" depart="98" departLane="0" departSpeed="random"/>
</routes>
