<routes>
    <vType id="typeA" type="passenger" length="4.5" accel="3" decel="4.5" sigma="0.0" maxSpeed="20" minGap="3" carFollowModel="CACC" tau="1.0" color="yellow"/>
    <vType id="typeB" type="passenger" length="4.5" accel="3" decel="4.5" sigma="0.0" maxSpeed="20" minGap="3" carFollowModel="CACC" tau="1.0" color="blue"/>
    <vType id="typeC" type="passenger" length="4.5" accel="3" decel="4.5" sigma="0.0" maxSpeed="20" minGap="3" carFollowModel="CACC" tau="1.0" color="magenta"/>
    <route edges="incoming X" color="yellow" id="route_0"/>
    <route edges="incoming X" color="yellow" id="route_1"/>
    <route edges="incoming Y" color="yellow" id="route_2"/>
    <route edges="incoming Y" color="yellow" id="route_3"/>
    <vehicle id="C_1" type="typeC" route="route_3" depart="1" departLane="0" departSpeed="0"/>
    <vehicle id="A_1" type="typeA" route="route_0" depart="2" departLane="2" departSpeed="0"/>
    <vehicle id="A_2" type="typeA" route="route_0" depart="3" departLane="2" departSpeed="0"/>
    <vehicle id="A_3" type="typeA" route="route_0" depart="5" departLane="2" departSpeed="0"/>
    <vehicle id="B_1" type="typeB" route="route_1" depart="5" departLane="1" departSpeed="0"/>
    <vehicle id="C_2" type="typeC" route="route_3" depart="5" departLane="0" departSpeed="0"/>
    <vehicle id="A_4" type="typeA" route="route_0" depart="6" departLane="2" departSpeed="0"/>
    <vehicle id="C_3" type="typeC" route="route_3" depart="6" departLane="0" departSpeed="0"/>
    <vehicle id="A_5" type="typeA" route="route_0" depart="7" departLane="2" departSpeed="0"/>
    <vehicle id="B_2" type="typeB" route="route_1" depart="7" departLane="1" departSpeed="0"/>
    <vehicle id="B_3" type="typeB" route="route_1" depart="8" departLane="1" departSpeed="0"/>
    <vehicle id="A_6" type="typeA" route="route_0" depart="10" departLane="2" departSpeed="0"/>
    <vehicle id="C_4" type="typeC" route="route_3" depart="10" departLane="0" departSpeed="0"/>
    <vehicle id="B_4" type="typeB" route="route_1" depart="11" departLane="1" departSpeed="0"/>
    <vehicle id="A_7" type="typeA" route="route_0" depart="14" departLane="2" departSpeed="0"/>
    <vehicle id="C_5" type="typeC" route="route_3" depart="14" departLane="0" departSpeed="0"/>
    <vehicle id="A_8" type="typeA" route="route_0" depart="16" departLane="2" departSpeed="0"/>
    <vehicle id="B_5" type="typeB" route="route_1" depart="17" departLane="1" departSpeed="0"/>
    <vehicle id="C_6" type="typeC" route="route_3" depart="18" departLane="0" departSpeed="0"/>
    <vehicle id="A_9" type="typeA" route="route_0" depart="19" departLane="2" departSpeed="0"/>
    <vehicle id="C_7" type="typeC" route="route_3" depart="19" departLane="0" departSpeed="0"/>
    <vehicle id="C_8" type="typeC" route="route_3" depart="20" departLane="0" departSpeed="0"/>
    <vehicle id="C_9" type="typeC" route="route_3" depart="21" departLane="0" departSpeed="0"/>
    <vehicle id="B_6" type="typeB" route="route_1" depart="22" departLane="1" departSpeed="0"/>
    <vehicle id="C_10" type="typeC" route="route_3" depart="23" departLane="0" departSpeed="0"/>
    <vehicle id="B_7" type="typeB" route="route_1" depart="24" departLane="1" departSpeed="0"/>
    <vehicle id="C_11" type="typeC" route="route_3" depart="24" departLane="0" departSpeed="0"/>
    <vehicle id="A_10" type="typeA" route="route_0" depart="26" departLane="2" departSpeed="0"/>
    <vehicle id="C_12" type="typeC" route="route_3" depart="30" departLane="0" departSpeed="0"/>
    <vehicle id="B_8" type="typeB" route="route_1" depart="32" departLane="1" departSpeed="0"/>
    <vehicle id="C_13" type="typeC" route="route_3" depart="32" departLane="0" departSpeed="0"/>
    <vehicle id="A_11" type="typeA" route="route_0" depart="33" departLane="2" departSpeed="0"/>
    <vehicle id="B_9" type="typeB" route="route_1" depart="34" departLane="1" departSpeed="0"/>
    <vehicle id="A_12" type="typeA" route="route_0" depart="35" departLane="2" departSpeed="0"/>
    <vehicle id="B_10" type="typeB" route="route_1" depart="36" departLane="1" departSpeed="0"/>
    <vehicle id="C_14" type="typeC" route="route_3" depart="36" departLane="0" departSpeed="0"/>
    <vehicle id="A_13" type="typeA" route="route_0" depart="37" departLane="2" departSpeed="0"/>
    <vehicle id="A_14" type="typeA" route="route_0" depart="39" departLane="2" departSpeed="0"/>
    <vehicle id="C_15" type="typeC" route="route_3" depart="39" departLane="0" departSpeed="0"/>
    <vehicle id="B_11" type="typeB" route="route_1" depart="40" departLane="1" departSpeed="0"/>
    <vehicle id="B_12" type="typeB" route="route_1" depart="41" departLane="1" departSpeed="0"/>
    <vehicle id="A_15" type="typeA" route="route_0" depart="42" departLane="2" departSpeed="0"/>
    <vehicle id="B_13" type="typeB" route="route_1" depart="42" departLane="1" departSpeed="0"/>
    <vehicle id="C_16" type="typeC" route="route_3" depart="42" departLane="0" departSpeed="0"/>
    <vehicle id="A_16" type="typeA" route="route_0" depart="45" departLane="2" departSpeed="0"/>
    <vehicle id="B_14" type="typeB" route="route_1" depart="45" departLane="1" departSpeed="0"/>
    <vehicle id="A_17" type="typeA" route="route_0" depart="46" departLane="2" departSpeed="0"/>
    <vehicle id="A_18" type="typeA" route="route_0" depart="49" departLane="2" departSpeed="0"/>
    <vehicle id="B_15" type="typeB" route="route_1" depart="50" departLane="1" departSpeed="0"/>
    <vehicle id="C_17" type="typeC" route="route_3" depart="50" departLane="0" departSpeed="0"/>
    <vehicle id="A_19" type="typeA" route="route_0" depart="51" departLane="2" departSpeed="0"/>
    <vehicle id="C_18" type="typeC" route="route_3" depart="52" departLane="0" departSpeed="0"/>
    <vehicle id="A_20" type="typeA" route="route_0" depart="53" departLane="2" departSpeed="0"/>
    <vehicle id="C_19" type="typeC" route="route_3" depart="54" departLane="0" departSpeed="0"/>
    <vehicle id="B_16" type="typeB" route="route_1" depart="56" departLane="1" departSpeed="0"/>
    <vehicle id="C_20" type="typeC" route="route_3" depart="56" departLane="0" departSpeed="0"/>
    <vehicle id="B_17" type="typeB" route="route_1" depart="58" departLane="1" departSpeed="0"/>
    <vehicle id="B_18" type="typeB" route="route_1" depart="60" departLane="1" departSpeed="0"/>
    <vehicle id="B_19" type="typeB" route="route_1" depart="61" departLane="1" departSpeed="0"/>
    <vehicle id="B_20" type="typeB" route="route_1" depart="64" departLane="1" departSpeed="0"/>
</routes>
