<configuration>
    <input>
        <net-file value="../../sumo_data/laneMerging2.net.xml"/>
        <route-files value="3.rou.xml"/>
        <additional-files value="../../sumo_data/laneMerging.add.xml"/>
        <gui-settings-file value="../../sumo_data/laneMerging.view.xml"/>
    </input>
</configuration>
