<additional>
   <laneAreaDetector id="dA" lane="E6_0" endPos="300" length="150" freq="4" file="output_dA.xml" />  
   <laneAreaDetector id="dB" lane="E7_0" endPos="300" length="150" freq="4" file="output_dB.xml" />
   <laneAreaDetector id="dC" lane="E8_0" endPos="300" length="150" freq="4" file="output_dC.xml" />
</additional>
